CRYSTAL
# Primitive lattice vectors in Angstrom
PRIMVEC
 1.09880024483283 3.10787641716293 1.90317785141958
 1.09880024483283 3.10787641716293 -1.90317785141958
 -2.19760048966566 3.10787641716293 -0.00000000000000
# Cartesian coordinates in Angstrom.
PRIMCOORD
 2 1
Ac     0.00000000000000     0.00000000000000     0.00000000000000
O     0.00000000000000     4.66181462574439     0.00000000000000