CRYSTAL
# Primitive lattice vectors in Angstrom
PRIMVEC
 1.39849159901481 3.95553157238317 2.42225850345190
 1.39849159901481 3.95553157238317 -2.42225850345190
 -2.79698319802963 3.95553157238317 -0.00000000000000
# Cartesian coordinates in Angstrom.
PRIMCOORD
 3 1
Ac     0.00000000000000     8.89994603786213     0.00000000000000
Ac     0.00000000000000     2.96664867928738     0.00000000000000
O     0.00000000000000     0.00000000000000     0.00000000000000