CRYSTAL
# Primitive lattice vectors in Angstrom
PRIMVEC
 1.21678193299699 3.44157902418980 2.10752812968266
 1.21678193299699 3.44157902418980 -2.10752812968266
 -2.43356386599399 3.44157902418980 -0.00000000000000
# Cartesian coordinates in Angstrom.
PRIMCOORD
 3 1
Ac     0.00000000000000     0.00000000000000     0.00000000000000
O     0.00000000000000     7.74355280442704     0.00000000000000
O    -0.00000000000000     2.58118426814235    -0.00000000000000