CRYSTAL
# Primitive lattice vectors in Angstrom
PRIMVEC
 0.95386334735333 2.69793296495536 1.65213978109369
 0.95386334735333 2.69793296495536 -1.65213978109369
 -1.90772669470666 2.69793296495536 -0.00000000000000
# Cartesian coordinates in Angstrom.
PRIMCOORD
 2 1
Ag     0.00000000000000     0.00000000000000     0.00000000000000
O     0.00000000000000     4.04689944743304     0.00000000000000