CRYSTAL
# Primitive lattice vectors in Angstrom
PRIMVEC
 1.05366717194408 2.98022080958123 1.82500507607455
 1.05366717194408 2.98022080958123 -1.82500507607455
 -2.10733434388815 2.98022080958123 -0.00000000000000
# Cartesian coordinates in Angstrom.
PRIMCOORD
 3 1
Ag     0.00000000000000     0.00000000000000     0.00000000000000
O     0.00000000000000     6.70549682155777     0.00000000000000
O     0.00000000000000     2.23516560718592     0.00000000000000