CRYSTAL
# Primitive lattice vectors in Angstrom
PRIMVEC
 1.18072812192070 3.33960344699113 2.04508109709203
 1.18072812192070 3.33960344699113 -2.04508109709203
 -2.36145624384140 3.33960344699113 -0.00000000000000
# Cartesian coordinates in Angstrom.
PRIMCOORD
 3 1
Ag     0.00000000000000     7.51410775573004     0.00000000000000
Ag    -0.00000000000000     2.50470258524335    -0.00000000000000
O     0.00000000000000     0.00000000000000     0.00000000000000