CRYSTAL
# Primitive lattice vectors in Angstrom
PRIMVEC
 0.96362185457232 2.72553419147058 1.66904201140300
 0.96362185457232 2.72553419147058 -1.66904201140300
 -1.92724370914464 2.72553419147058 -0.00000000000000
# Cartesian coordinates in Angstrom.
PRIMCOORD
 3 1
Al     0.00000000000000     0.00000000000000     0.00000000000000
O     0.00000000000000     6.13245193080879     0.00000000000000
O    -0.00000000000000     2.04415064360293     0.00000000000000