CRYSTAL
# Primitive lattice vectors in Angstrom
PRIMVEC
 1.16276663101614 3.28880067891579 2.01397088226564
 1.16276663101614 3.28880067891579 -2.01397088226564
 -2.32553326203228 3.28880067891579 -0.00000000000000
# Cartesian coordinates in Angstrom.
PRIMCOORD
 3 1
Al     0.00000000000000     7.39980152756052     0.00000000000000
Al     0.00000000000000     2.46660050918684    -0.00000000000000
O     0.00000000000000     0.00000000000000     0.00000000000000