CRYSTAL
# Primitive lattice vectors in Angstrom
PRIMVEC
 0.91419608590309 2.58573700670509 1.58343406886475
 0.91419608590309 2.58573700670509 -1.58343406886475
 -1.82839217180618 2.58573700670509 -0.00000000000000
# Cartesian coordinates in Angstrom.
PRIMCOORD
 2 1
Al     0.00000000000000     0.00000000000000     0.00000000000000
O     0.00000000000000     3.87860551005764     0.00000000000000