CRYSTAL
# Primitive lattice vectors in Angstrom
PRIMVEC
 0.96802797652503 2.73799658631656 1.67667363848944
 0.96802797652503 2.73799658631656 -1.67667363848944
 -1.93605595305006 2.73799658631656 -0.00000000000000
# Cartesian coordinates in Angstrom.
PRIMCOORD
 2 1
Am     0.00000000000000     0.00000000000000     0.00000000000000
O     0.00000000000000     4.10699487947484     0.00000000000000