CRYSTAL
# Primitive lattice vectors in Angstrom
PRIMVEC
 1.15606470393497 3.26984476657135 2.00236280405245
 1.15606470393497 3.26984476657135 -2.00236280405244
 -2.31212940786995 3.26984476657135 -0.00000000000000
# Cartesian coordinates in Angstrom.
PRIMCOORD
 3 1
Am     0.00000000000000     7.35715072478554     0.00000000000000
Am     0.00000000000000     2.45238357492851     0.00000000000000
O     0.00000000000000     0.00000000000000     0.00000000000000