CRYSTAL
# Primitive lattice vectors in Angstrom
PRIMVEC
 1.07937297698028 3.05292780580906 1.86952883644671
 1.07937297698028 3.05292780580906 -1.86952883644671
 -2.15874595396055 3.05292780580906 -0.00000000000000
# Cartesian coordinates in Angstrom.
PRIMCOORD
 3 1
Am     0.00000000000000     0.00000000000000     0.00000000000000
O    -0.00000000000000     6.86908756307038     0.00000000000000
O    -0.00000000000000     2.28969585435679     0.00000000000000