CRYSTAL
# Primitive lattice vectors in Angstrom
PRIMVEC
 1.10275423534555 3.11905999118008 1.91002636388025
 1.10275423534555 3.11905999118008 -1.91002636388025
 -2.20550847069109 3.11905999118008 -0.00000000000000
# Cartesian coordinates in Angstrom.
PRIMCOORD
 2 1
Ar     0.00000000000000     0.00000000000000     0.00000000000000
O     0.00000000000000     4.67858998677013     0.00000000000000