CRYSTAL
# Primitive lattice vectors in Angstrom
PRIMVEC
 1.56805765176325 4.43513679541299 2.71595552205109
 1.56805765176325 4.43513679541299 -2.71595552205109
 -3.13611530352650 4.43513679541299 -0.00000000000000
# Cartesian coordinates in Angstrom.
PRIMCOORD
 3 1
Ar     0.00000000000000     9.97905778967922     0.00000000000000
Ar    -0.00000000000000     3.32635259655974     0.00000000000000
O     0.00000000000000     0.00000000000000     0.00000000000000