CRYSTAL
# Primitive lattice vectors in Angstrom
PRIMVEC
 1.20415324453287 3.40585969918790 2.08565459962984
 1.20415324453287 3.40585969918790 -2.08565459962984
 -2.40830648906574 3.40585969918790 -0.00000000000000
# Cartesian coordinates in Angstrom.
PRIMCOORD
 3 1
Ar     0.00000000000000     0.00000000000000     0.00000000000000
O     0.00000000000000     7.66318432317278     0.00000000000000
O     0.00000000000000     2.55439477439093    -0.00000000000000