CRYSTAL
# Primitive lattice vectors in Angstrom
PRIMVEC
 1.02339896241758 2.89460938473900 1.77257899932053
 1.02339896241758 2.89460938473900 -1.77257899932053
 -2.04679792483517 2.89460938473900 -0.00000000000000
# Cartesian coordinates in Angstrom.
PRIMCOORD
 3 1
As     0.00000000000000     0.00000000000000     0.00000000000000
O     0.00000000000000     6.51287111566275     0.00000000000000
O     0.00000000000000     2.17095703855425     0.00000000000000