CRYSTAL
# Primitive lattice vectors in Angstrom
PRIMVEC
 0.97440444705327 2.75603196851879 1.68771800941732
 0.97440444705327 2.75603196851879 -1.68771800941732
 -1.94880889410654 2.75603196851879 -0.00000000000000
# Cartesian coordinates in Angstrom.
PRIMCOORD
 2 1
As     0.00000000000000     0.00000000000000     0.00000000000000
O    -0.00000000000000     4.13404795277818     0.00000000000000