CRYSTAL
# Primitive lattice vectors in Angstrom
PRIMVEC
 1.17607629847703 3.32644610338354 2.03702390253976
 1.17607629847703 3.32644610338354 -2.03702390253976
 -2.35215259695407 3.32644610338354 -0.00000000000000
# Cartesian coordinates in Angstrom.
PRIMCOORD
 3 1
As     0.00000000000000     7.48450373261296     0.00000000000000
As    -0.00000000000000     2.49483457753765     0.00000000000000
O     0.00000000000000     0.00000000000000     0.00000000000000