CRYSTAL
# Primitive lattice vectors in Angstrom
PRIMVEC
 1.38330514843023 3.91257780362110 2.39595479945276
 1.38330514843023 3.91257780362110 -2.39595479945276
 -2.76661029686045 3.91257780362110 -0.00000000000000
# Cartesian coordinates in Angstrom.
PRIMCOORD
 3 1
At     0.00000000000000     8.80330005814748     0.00000000000000
At     0.00000000000000     2.93443335271583     0.00000000000000
O     0.00000000000000     0.00000000000000     0.00000000000000