CRYSTAL
# Primitive lattice vectors in Angstrom
PRIMVEC
 1.14262857545275 3.23184165632067 1.97909074686422
 1.14262857545275 3.23184165632067 -1.97909074686422
 -2.28525715090551 3.23184165632067 -0.00000000000000
# Cartesian coordinates in Angstrom.
PRIMCOORD
 3 1
At     0.00000000000000     0.00000000000000     0.00000000000000
O     0.00000000000000     7.27164372672151     0.00000000000000
O    -0.00000000000000     2.42388124224050     0.00000000000000