CRYSTAL
# Primitive lattice vectors in Angstrom
PRIMVEC
 1.11539468016723 3.15481256818259 1.93192025654168
 1.11539468016723 3.15481256818259 -1.93192025654168
 -2.23078936033446 3.15481256818259 -0.00000000000000
# Cartesian coordinates in Angstrom.
PRIMCOORD
 2 1
At     0.00000000000000     0.00000000000000     0.00000000000000
O     0.00000000000000     4.73221885227388     0.00000000000000