CRYSTAL
# Primitive lattice vectors in Angstrom
PRIMVEC
 1.05995012211506 2.99799167626827 1.83588746499212
 1.05995012211506 2.99799167626827 -1.83588746499212
 -2.11990024423012 2.99799167626827 -0.00000000000000
# Cartesian coordinates in Angstrom.
PRIMCOORD
 3 1
Au     0.00000000000000     0.00000000000000     0.00000000000000
O     0.00000000000000     6.74548127160361     0.00000000000000
O    -0.00000000000000     2.24849375720120     0.00000000000000