CRYSTAL
# Primitive lattice vectors in Angstrom
PRIMVEC
 1.18927026712783 3.36376428219850 2.05987652659641
 1.18927026712783 3.36376428219850 -2.05987652659641
 -2.37854053425566 3.36376428219850 -0.00000000000000
# Cartesian coordinates in Angstrom.
PRIMCOORD
 3 1
Au    -0.00000000000000     7.56846963494663     0.00000000000000
Au    -0.00000000000000     2.52282321164888     0.00000000000000
O     0.00000000000000     0.00000000000000     0.00000000000000