CRYSTAL
# Primitive lattice vectors in Angstrom
PRIMVEC
 0.97059539165137 2.74525833290039 1.68112053193239
 0.97059539165137 2.74525833290039 -1.68112053193239
 -1.94119078330274 2.74525833290039 -0.00000000000000
# Cartesian coordinates in Angstrom.
PRIMCOORD
 2 1
Au     0.00000000000000     0.00000000000000     0.00000000000000
O     0.00000000000000     4.11788749935058     0.00000000000000