CRYSTAL
# Primitive lattice vectors in Angstrom
PRIMVEC
 1.00715721964605 2.84867079893083 1.74444747563676
 1.00715721964605 2.84867079893083 -1.74444747563676
 -2.01431443929209 2.84867079893083 -0.00000000000000
# Cartesian coordinates in Angstrom.
PRIMCOORD
 3 1
B     0.00000000000000     6.40950929759437     0.00000000000000
B     0.00000000000000     2.13650309919812    -0.00000000000000
O     0.00000000000000     0.00000000000000     0.00000000000000