CRYSTAL
# Primitive lattice vectors in Angstrom
PRIMVEC
 0.79394870815307 2.24562606179733 1.37515950112479
 0.79394870815307 2.24562606179733 -1.37515950112479
 -1.58789741630613 2.24562606179733 -0.00000000000000
# Cartesian coordinates in Angstrom.
PRIMCOORD
 2 1
B     0.00000000000000     0.00000000000000     0.00000000000000
O    -0.00000000000000     3.36843909269600     0.00000000000000