CRYSTAL
# Primitive lattice vectors in Angstrom
PRIMVEC
 0.88494545754703 2.50300373604696 1.53277049439875
 0.88494545754703 2.50300373604696 -1.53277049439875
 -1.76989091509407 2.50300373604696 -0.00000000000000
# Cartesian coordinates in Angstrom.
PRIMCOORD
 3 1
B     0.00000000000000     0.00000000000000     0.00000000000000
O     0.00000000000000     5.63175840610566     0.00000000000000
O     0.00000000000000     1.87725280203522    -0.00000000000000