CRYSTAL
# Primitive lattice vectors in Angstrom
PRIMVEC
 1.27070659204297 3.59410099252813 2.20092837893113
 1.27070659204297 3.59410099252813 -2.20092837893112
 -2.54141318408594 3.59410099252813 -0.00000000000000
# Cartesian coordinates in Angstrom.
PRIMCOORD
 3 1
Ba     0.00000000000000     0.00000000000000     0.00000000000000
O     0.00000000000000     8.08672723318830     0.00000000000000
O     0.00000000000000     2.69557574439610     0.00000000000000