CRYSTAL
# Primitive lattice vectors in Angstrom
PRIMVEC
 1.39505611221306 3.94581454832640 2.41630806576254
 1.39505611221306 3.94581454832640 -2.41630806576254
 -2.79011222442613 3.94581454832640 -0.00000000000000
# Cartesian coordinates in Angstrom.
PRIMCOORD
 3 1
Ba     0.00000000000000     8.87808273373439     0.00000000000000
Ba     0.00000000000000     2.95936091124480     0.00000000000000
O     0.00000000000000     0.00000000000000     0.00000000000000