CRYSTAL
# Primitive lattice vectors in Angstrom
PRIMVEC
 1.13764195029689 3.21773735046889 1.97045365873597
 1.13764195029689 3.21773735046889 -1.97045365873596
 -2.27528390059378 3.21773735046889 -0.00000000000000
# Cartesian coordinates in Angstrom.
PRIMCOORD
 2 1
Ba     0.00000000000000     0.00000000000000     0.00000000000000
O     0.00000000000000     4.82660602570333     0.00000000000000