CRYSTAL
# Primitive lattice vectors in Angstrom
PRIMVEC
 0.97011490566093 2.74389931329197 1.68028830578462
 0.97011490566093 2.74389931329197 -1.68028830578462
 -1.94022981132186 2.74389931329197 -0.00000000000000
# Cartesian coordinates in Angstrom.
PRIMCOORD
 3 1
Be     0.00000000000000     6.17377345490694     0.00000000000000
Be     0.00000000000000     2.05792448496898     0.00000000000000
O     0.00000000000000     0.00000000000000     0.00000000000000