CRYSTAL
# Primitive lattice vectors in Angstrom
PRIMVEC
 0.91045318934064 2.57515049654275 1.57695118185112
 0.91045318934064 2.57515049654275 -1.57695118185112
 -1.82090637868128 2.57515049654275 -0.00000000000000
# Cartesian coordinates in Angstrom.
PRIMCOORD
 3 1
Be     0.00000000000000     0.00000000000000     0.00000000000000
O     0.00000000000000     5.79408861722119     0.00000000000000
O     0.00000000000000     1.93136287240706    -0.00000000000000