CRYSTAL
# Primitive lattice vectors in Angstrom
PRIMVEC
 0.74440094384571 2.10548382125987 1.28934025594300
 0.74440094384571 2.10548382125987 -1.28934025594300
 -1.48880188769142 2.10548382125987 -0.00000000000000
# Cartesian coordinates in Angstrom.
PRIMCOORD
 2 1
Be     0.00000000000000     0.00000000000000     0.00000000000000
O     0.00000000000000     3.15822573188981     0.00000000000000