CRYSTAL
# Primitive lattice vectors in Angstrom
PRIMVEC
 1.12714981092892 3.18806109888391 1.95228074027055
 1.12714981092892 3.18806109888391 -1.95228074027055
 -2.25429962185785 3.18806109888391 -0.00000000000000
# Cartesian coordinates in Angstrom.
PRIMCOORD
 3 1
Bi     0.00000000000000     0.00000000000000     0.00000000000000
O     0.00000000000000     7.17313747248879     0.00000000000000
O     0.00000000000000     2.39104582416293     0.00000000000000