CRYSTAL
# Primitive lattice vectors in Angstrom
PRIMVEC
 1.07019585122679 3.02697097440068 1.85363358837422
 1.07019585122679 3.02697097440068 -1.85363358837421
 -2.14039170245357 3.02697097440068 -0.00000000000000
# Cartesian coordinates in Angstrom.
PRIMCOORD
 2 1
Bi     0.00000000000000     0.00000000000000     0.00000000000000
O     0.00000000000000     4.54045646160102     0.00000000000000