CRYSTAL
# Primitive lattice vectors in Angstrom
PRIMVEC
 1.33072467401312 3.76385776354775 2.30488274627626
 1.33072467401312 3.76385776354775 -2.30488274627626
 -2.66144934802625 3.76385776354775 -0.00000000000000
# Cartesian coordinates in Angstrom.
PRIMCOORD
 3 1
Bi     0.00000000000000     8.46867996798244     0.00000000000000
Bi    -0.00000000000000     2.82289332266081     0.00000000000000
O     0.00000000000000     0.00000000000000     0.00000000000000