CRYSTAL
# Primitive lattice vectors in Angstrom
PRIMVEC
 1.07984316607197 3.05425770138976 1.87034322784268
 1.07984316607197 3.05425770138976 -1.87034322784268
 -2.15968633214393 3.05425770138976 -0.00000000000000
# Cartesian coordinates in Angstrom.
PRIMCOORD
 3 1
Br     0.00000000000000     0.00000000000000     0.00000000000000
O     0.00000000000000     6.87207982812695     0.00000000000000
O    -0.00000000000000     2.29069327604232     0.00000000000000