CRYSTAL
# Primitive lattice vectors in Angstrom
PRIMVEC
 1.27988755215276 3.62006866913388 2.21683026830355
 1.27988755215276 3.62006866913388 -2.21683026830355
 -2.55977510430553 3.62006866913388 -0.00000000000000
# Cartesian coordinates in Angstrom.
PRIMCOORD
 3 1
Br     0.00000000000000     8.14515450555123     0.00000000000000
Br     0.00000000000000     2.71505150185041     0.00000000000000
O     0.00000000000000     0.00000000000000     0.00000000000000