CRYSTAL
# Primitive lattice vectors in Angstrom
PRIMVEC
 1.01908004216859 2.88239363355714 1.76509841001544
 1.01908004216859 2.88239363355714 -1.76509841001543
 -2.03816008433718 2.88239363355714 -0.00000000000000
# Cartesian coordinates in Angstrom.
PRIMCOORD
 2 1
Br     0.00000000000000     0.00000000000000     0.00000000000000
O     0.00000000000000     4.32359045033571     0.00000000000000