CRYSTAL
# Primitive lattice vectors in Angstrom
PRIMVEC
 0.99034675824236 2.80112363391715 1.71533090238690
 0.99034675824236 2.80112363391715 -1.71533090238690
 -1.98069351648472 2.80112363391715 -0.00000000000000
# Cartesian coordinates in Angstrom.
PRIMCOORD
 3 1
C     0.00000000000000     6.30252817631359     0.00000000000000
C    -0.00000000000000     2.10084272543786     0.00000000000000
O     0.00000000000000     0.00000000000000     0.00000000000000