CRYSTAL
# Primitive lattice vectors in Angstrom
PRIMVEC
 0.81137190870225 2.29490631483053 1.40533736970643
 0.81137190870225 2.29490631483053 -1.40533736970643
 -1.62274381740450 2.29490631483053 -0.00000000000000
# Cartesian coordinates in Angstrom.
PRIMCOORD
 2 1
C     0.00000000000000     0.00000000000000     0.00000000000000
O     0.00000000000000     3.44235947224579    -0.00000000000000