CRYSTAL
# Primitive lattice vectors in Angstrom
PRIMVEC
 0.91820090534465 2.59706434664331 1.59037061961267
 0.91820090534465 2.59706434664331 -1.59037061961267
 -1.83640181068929 2.59706434664331 -0.00000000000000
# Cartesian coordinates in Angstrom.
PRIMCOORD
 3 1
C     0.00000000000000     0.00000000000000     0.00000000000000
O     0.00000000000000     5.84339477994744     0.00000000000000
O     0.00000000000000     1.94779825998248     0.00000000000000