CRYSTAL
# Primitive lattice vectors in Angstrom
PRIMVEC
 1.24038053160855 3.50832594060873 2.14840210146531
 1.24038053160855 3.50832594060873 -2.14840210146531
 -2.48076106321711 3.50832594060873 -0.00000000000000
# Cartesian coordinates in Angstrom.
PRIMCOORD
 3 1
Ca     0.00000000000000     7.89373336636965     0.00000000000000
Ca    -0.00000000000000     2.63124445545655     0.00000000000000
O     0.00000000000000     0.00000000000000     0.00000000000000