CRYSTAL
# Primitive lattice vectors in Angstrom
PRIMVEC
 0.98615553037163 2.78926905132159 1.70807148276870
 0.98615553037163 2.78926905132159 -1.70807148276870
 -1.97231106074327 2.78926905132159 -0.00000000000000
# Cartesian coordinates in Angstrom.
PRIMCOORD
 2 1
Ca     0.00000000000000     0.00000000000000     0.00000000000000
O     0.00000000000000     4.18390357698239     0.00000000000000