CRYSTAL
# Primitive lattice vectors in Angstrom
PRIMVEC
 1.12910404656652 3.19358851196942 1.95566557568482
 1.12910404656652 3.19358851196942 -1.95566557568482
 -2.25820809313303 3.19358851196942 -0.00000000000000
# Cartesian coordinates in Angstrom.
PRIMCOORD
 3 1
Ca     0.00000000000000     0.00000000000000     0.00000000000000
O    -0.00000000000000     7.18557415193120     0.00000000000000
O    -0.00000000000000     2.39519138397707     0.00000000000000