CRYSTAL
# Primitive lattice vectors in Angstrom
PRIMVEC
 1.21777391446539 3.44438477148225 2.10924629198609
 1.21777391446539 3.44438477148225 -2.10924629198609
 -2.43554782893077 3.44438477148225 -0.00000000000000
# Cartesian coordinates in Angstrom.
PRIMCOORD
 3 1
Cd     0.00000000000000     7.74986573583506     0.00000000000000
Cd     0.00000000000000     2.58328857861168     0.00000000000000
O     0.00000000000000     0.00000000000000     0.00000000000000