CRYSTAL
# Primitive lattice vectors in Angstrom
PRIMVEC
 1.09447037161108 3.09562968629581 1.89567829100918
 1.09447037161108 3.09562968629581 -1.89567829100918
 -2.18894074322216 3.09562968629581 -0.00000000000000
# Cartesian coordinates in Angstrom.
PRIMCOORD
 3 1
Cd     0.00000000000000     0.00000000000000     0.00000000000000
O     0.00000000000000     6.96516679416558     0.00000000000000
O     0.00000000000000     2.32172226472186     0.00000000000000