CRYSTAL
# Primitive lattice vectors in Angstrom
PRIMVEC
 0.97318430929906 2.75258089779883 1.68560466883479
 0.97318430929906 2.75258089779883 -1.68560466883479
 -1.94636861859811 2.75258089779883 -0.00000000000000
# Cartesian coordinates in Angstrom.
PRIMCOORD
 2 1
Cd     0.00000000000000     0.00000000000000     0.00000000000000
O     0.00000000000000     4.12887134669825     0.00000000000000