CRYSTAL
# Primitive lattice vectors in Angstrom
PRIMVEC
 1.11544610178004 3.15495801046706 1.93200932138767
 1.11544610178004 3.15495801046706 -1.93200932138767
 -2.23089220356008 3.15495801046706 -0.00000000000000
# Cartesian coordinates in Angstrom.
PRIMCOORD
 3 1
Ce     0.00000000000000     0.00000000000000     0.00000000000000
O     0.00000000000000     7.09865552355089     0.00000000000000
O     0.00000000000000     2.36621850785030     0.00000000000000