CRYSTAL
# Primitive lattice vectors in Angstrom
PRIMVEC
 1.24040100085561 3.50838383638234 2.14843755524121
 1.24040100085561 3.50838383638234 -2.14843755524121
 -2.48080200171123 3.50838383638234 -0.00000000000000
# Cartesian coordinates in Angstrom.
PRIMCOORD
 3 1
Ce     0.00000000000000     7.89386363186026     0.00000000000000
Ce    -0.00000000000000     2.63128787728676    -0.00000000000000
O     0.00000000000000     0.00000000000000     0.00000000000000