CRYSTAL
# Primitive lattice vectors in Angstrom
PRIMVEC
 1.01829741068377 2.88018001743677 1.76374285252011
 1.01829741068377 2.88018001743677 -1.76374285252011
 -2.03659482136753 2.88018001743677 -0.00000000000000
# Cartesian coordinates in Angstrom.
PRIMCOORD
 2 1
Ce     0.00000000000000     0.00000000000000     0.00000000000000
O     0.00000000000000     4.32027002615516     0.00000000000000