CRYSTAL
# Primitive lattice vectors in Angstrom
PRIMVEC
 0.97156711460848 2.74800678047002 1.68280360546498
 0.97156711460848 2.74800678047002 -1.68280360546498
 -1.94313422921696 2.74800678047002 -0.00000000000000
# Cartesian coordinates in Angstrom.
PRIMCOORD
 2 1
Cl     0.00000000000000     0.00000000000000     0.00000000000000
O     0.00000000000000     4.12201017070502     0.00000000000000