CRYSTAL
# Primitive lattice vectors in Angstrom
PRIMVEC
 1.05684566257930 2.98921093870965 1.83051038334614
 1.05684566257930 2.98921093870965 -1.83051038334614
 -2.11369132515860 2.98921093870965 -0.00000000000000
# Cartesian coordinates in Angstrom.
PRIMCOORD
 3 1
Cl     0.00000000000000     0.00000000000000     0.00000000000000
O     0.00000000000000     6.72572461209672     0.00000000000000
O     0.00000000000000     2.24190820403224     0.00000000000000