CRYSTAL
# Primitive lattice vectors in Angstrom
PRIMVEC
 1.22890502329642 3.47586830162843 2.12852593802601
 1.22890502329642 3.47586830162843 -2.12852593802601
 -2.45781004659283 3.47586830162843 -0.00000000000000
# Cartesian coordinates in Angstrom.
PRIMCOORD
 3 1
Cl     0.00000000000000     7.82070367866398     0.00000000000000
Cl    -0.00000000000000     2.60690122622132    -0.00000000000000
O     0.00000000000000     0.00000000000000     0.00000000000000