CRYSTAL
# Primitive lattice vectors in Angstrom
PRIMVEC
 1.07638096133814 3.04446510760919 1.86434651333750
 1.07638096133814 3.04446510760919 -1.86434651333750
 -2.15276192267629 3.04446510760919 -0.00000000000000
# Cartesian coordinates in Angstrom.
PRIMCOORD
 3 1
Cm     0.00000000000000     0.00000000000000     0.00000000000000
O     0.00000000000000     6.85004649212067     0.00000000000000
O     0.00000000000000     2.28334883070689    -0.00000000000000