CRYSTAL
# Primitive lattice vectors in Angstrom
PRIMVEC
 0.96957535664027 2.74237323820679 1.67935377946765
 0.96957535664027 2.74237323820679 -1.67935377946765
 -1.93915071328053 2.74237323820679 -0.00000000000000
# Cartesian coordinates in Angstrom.
PRIMCOORD
 2 1
Cm     0.00000000000000     0.00000000000000     0.00000000000000
O     0.00000000000000     4.11355985731018     0.00000000000000