CRYSTAL
# Primitive lattice vectors in Angstrom
PRIMVEC
 1.15982058848096 3.28046801229863 2.00886818691345
 1.15982058848096 3.28046801229863 -2.00886818691345
 -2.31964117696192 3.28046801229863 -0.00000000000000
# Cartesian coordinates in Angstrom.
PRIMCOORD
 3 1
Cm     0.00000000000000     7.38105302767192     0.00000000000000
Cm     0.00000000000000     2.46035100922397     0.00000000000000
O     0.00000000000000     0.00000000000000     0.00000000000000