CRYSTAL
# Primitive lattice vectors in Angstrom
PRIMVEC
 1.00498248828887 2.84251972977116 1.74068073043331
 1.00498248828887 2.84251972977116 -1.74068073043331
 -2.00996497657774 2.84251972977116 -0.00000000000000
# Cartesian coordinates in Angstrom.
PRIMCOORD
 3 1
Co     0.00000000000000     6.39566939198510     0.00000000000000
Co     0.00000000000000     2.13188979732837    -0.00000000000000
O     0.00000000000000     0.00000000000000     0.00000000000000