CRYSTAL
# Primitive lattice vectors in Angstrom
PRIMVEC
 0.94786285754946 2.68096101683233 1.64174662788309
 0.94786285754946 2.68096101683233 -1.64174662788309
 -1.89572571509892 2.68096101683233 -0.00000000000000
# Cartesian coordinates in Angstrom.
PRIMCOORD
 3 1
Co     0.00000000000000     0.00000000000000     0.00000000000000
O     0.00000000000000     6.03216228787275     0.00000000000000
O     0.00000000000000     2.01072076262425    -0.00000000000000