CRYSTAL
# Primitive lattice vectors in Angstrom
PRIMVEC
 0.83755879893259 2.36897402547078 1.45069439407761
 0.83755879893259 2.36897402547078 -1.45069439407761
 -1.67511759786518 2.36897402547078 -0.00000000000000
# Cartesian coordinates in Angstrom.
PRIMCOORD
 2 1
Co     0.00000000000000     0.00000000000000     0.00000000000000
O     0.00000000000000     3.55346103820617     0.00000000000000