CRYSTAL
# Primitive lattice vectors in Angstrom
PRIMVEC
 0.95276032650498 2.69481315086871 1.65022929294253
 0.95276032650498 2.69481315086871 -1.65022929294253
 -1.90552065300995 2.69481315086871 -0.00000000000000
# Cartesian coordinates in Angstrom.
PRIMCOORD
 3 1
Cr     0.00000000000000     0.00000000000000     0.00000000000000
O     0.00000000000000     6.06332958945460     0.00000000000000
O     0.00000000000000     2.02110986315153    -0.00000000000000