CRYSTAL
# Primitive lattice vectors in Angstrom
PRIMVEC
 0.84386565029633 2.38681249493972 1.46161818107539
 0.84386565029633 2.38681249493972 -1.46161818107539
 -1.68773130059266 2.38681249493972 -0.00000000000000
# Cartesian coordinates in Angstrom.
PRIMCOORD
 2 1
Cr     0.00000000000000     0.00000000000000     0.00000000000000
O     0.00000000000000     3.58021874240958    -0.00000000000000