CRYSTAL
# Primitive lattice vectors in Angstrom
PRIMVEC
 1.01173603222941 2.86162163664074 1.75237821166948
 1.01173603222941 2.86162163664074 -1.75237821166948
 -2.02347206445882 2.86162163664074 -0.00000000000000
# Cartesian coordinates in Angstrom.
PRIMCOORD
 3 1
Cr     0.00000000000000     6.43864868244167     0.00000000000000
Cr     0.00000000000000     2.14621622748056     0.00000000000000
O     0.00000000000000     0.00000000000000     0.00000000000000