CRYSTAL
# Primitive lattice vectors in Angstrom
PRIMVEC
 1.29313058878973 3.65752563317188 2.23976788060527
 1.29313058878973 3.65752563317188 -2.23976788060527
 -2.58626117757946 3.65752563317188 -0.00000000000000
# Cartesian coordinates in Angstrom.
PRIMCOORD
 3 1
Cs     0.00000000000000     0.00000000000000     0.00000000000000
O    -0.00000000000000     8.22943267463673     0.00000000000000
O    -0.00000000000000     2.74314422487891     0.00000000000000