CRYSTAL
# Primitive lattice vectors in Angstrom
PRIMVEC
 1.21922613562025 3.44849227318779 2.11176161281013
 1.21922613562025 3.44849227318779 -2.11176161281013
 -2.43845227124050 3.44849227318779 -0.00000000000000
# Cartesian coordinates in Angstrom.
PRIMCOORD
 2 1
Cs     0.00000000000000     0.00000000000000     0.00000000000000
O    -0.00000000000000     5.17273840978168    -0.00000000000000