CRYSTAL
# Primitive lattice vectors in Angstrom
PRIMVEC
 1.48613895288306 4.20343572547633 2.57406817350066
 1.48613895288306 4.20343572547633 -2.57406817350066
 -2.97227790576611 4.20343572547633 -0.00000000000000
# Cartesian coordinates in Angstrom.
PRIMCOORD
 3 1
Cs     0.00000000000000     9.45773038232175     0.00000000000000
Cs     0.00000000000000     3.15257679410725     0.00000000000000
O     0.00000000000000     0.00000000000000     0.00000000000000