CRYSTAL
# Primitive lattice vectors in Angstrom
PRIMVEC
 0.98666036119916 2.79069692852758 1.70894587541121
 0.98666036119916 2.79069692852758 -1.70894587541121
 -1.97332072239832 2.79069692852758 -0.00000000000000
# Cartesian coordinates in Angstrom.
PRIMCOORD
 3 1
Cu     0.00000000000000     0.00000000000000     0.00000000000000
O     0.00000000000000     6.27906808918705     0.00000000000000
O     0.00000000000000     2.09302269639568    -0.00000000000000