CRYSTAL
# Primitive lattice vectors in Angstrom
PRIMVEC
 1.05524538564515 2.98468467202198 1.82773862239001
 1.05524538564515 2.98468467202198 -1.82773862239001
 -2.11049077129029 2.98468467202198 -0.00000000000000
# Cartesian coordinates in Angstrom.
PRIMCOORD
 3 1
Cu     0.00000000000000     6.71554051204946     0.00000000000000
Cu     0.00000000000000     2.23851350401649    -0.00000000000000
O     0.00000000000000     0.00000000000000     0.00000000000000