CRYSTAL
# Primitive lattice vectors in Angstrom
PRIMVEC
 0.86623790244476 2.45009077975799 1.50036805847621
 0.86623790244476 2.45009077975799 -1.50036805847621
 -1.73247580488951 2.45009077975799 -0.00000000000000
# Cartesian coordinates in Angstrom.
PRIMCOORD
 2 1
Cu     0.00000000000000     0.00000000000000     0.00000000000000
O     0.00000000000000     3.67513616963699     0.00000000000000