CRYSTAL
# Primitive lattice vectors in Angstrom
PRIMVEC
 0.98597037571385 2.78874535486525 1.70775078549417
 0.98597037571385 2.78874535486525 -1.70775078549417
 -1.97194075142771 2.78874535486525 -0.00000000000000
# Cartesian coordinates in Angstrom.
PRIMCOORD
 2 1
Dy     0.00000000000000     0.00000000000000     0.00000000000000
O     0.00000000000000     4.18311803229788     0.00000000000000