CRYSTAL
# Primitive lattice vectors in Angstrom
PRIMVEC
 1.20778036898989 3.41611875638697 2.09193696347478
 1.20778036898989 3.41611875638697 -2.09193696347478
 -2.41556073797979 3.41611875638697 -0.00000000000000
# Cartesian coordinates in Angstrom.
PRIMCOORD
 3 1
Dy     0.00000000000000     7.68626720187069     0.00000000000000
Dy     0.00000000000000     2.56208906729023     0.00000000000000
O     0.00000000000000     0.00000000000000     0.00000000000000