CRYSTAL
# Primitive lattice vectors in Angstrom
PRIMVEC
 1.07917953755611 3.05238067649476 1.86919378953587
 1.07917953755611 3.05238067649476 -1.86919378953587
 -2.15835907511222 3.05238067649476 -0.00000000000000
# Cartesian coordinates in Angstrom.
PRIMCOORD
 3 1
Dy     0.00000000000000     0.00000000000000     0.00000000000000
O     0.00000000000000     6.86785652211320     0.00000000000000
O    -0.00000000000000     2.28928550737107     0.00000000000000