CRYSTAL
# Primitive lattice vectors in Angstrom
PRIMVEC
 0.98421184694067 2.78377148438354 1.70470492431245
 0.98421184694067 2.78377148438354 -1.70470492431245
 -1.96842369388134 2.78377148438354 -0.00000000000000
# Cartesian coordinates in Angstrom.
PRIMCOORD
 2 1
Er     0.00000000000000     0.00000000000000     0.00000000000000
O     0.00000000000000     4.17565722657531     0.00000000000000