CRYSTAL
# Primitive lattice vectors in Angstrom
PRIMVEC
 1.07878160595809 3.05125515596913 1.86850455179017
 1.07878160595809 3.05125515596913 -1.86850455179017
 -2.15756321191619 3.05125515596913 -0.00000000000000
# Cartesian coordinates in Angstrom.
PRIMCOORD
 3 1
Er     0.00000000000000     0.00000000000000     0.00000000000000
O     0.00000000000000     6.86532410093054     0.00000000000000
O    -0.00000000000000     2.28844136697685     0.00000000000000