CRYSTAL
# Primitive lattice vectors in Angstrom
PRIMVEC
 1.22326836692161 3.45992542984505 2.11876296280004
 1.22326836692161 3.45992542984505 -2.11876296280003
 -2.44653673384322 3.45992542984505 -0.00000000000000
# Cartesian coordinates in Angstrom.
PRIMCOORD
 3 1
Er     0.00000000000000     7.78483221715137     0.00000000000000
Er     0.00000000000000     2.59494407238379    -0.00000000000000
O     0.00000000000000     0.00000000000000     0.00000000000000