CRYSTAL
# Primitive lattice vectors in Angstrom
PRIMVEC
 1.08638300363172 3.07275515533520 1.88167055876943
 1.08638300363172 3.07275515533520 -1.88167055876943
 -2.17276600726344 3.07275515533520 -0.00000000000000
# Cartesian coordinates in Angstrom.
PRIMCOORD
 3 1
Eu     0.00000000000000     0.00000000000000     0.00000000000000
O     0.00000000000000     6.91369909950420     0.00000000000000
O     0.00000000000000     2.30456636650140    -0.00000000000000