CRYSTAL
# Primitive lattice vectors in Angstrom
PRIMVEC
 0.98978874307729 2.79954532868824 1.71436439176960
 0.98978874307729 2.79954532868824 -1.71436439176960
 -1.97957748615458 2.79954532868824 -0.00000000000000
# Cartesian coordinates in Angstrom.
PRIMCOORD
 2 1
Eu     0.00000000000000     0.00000000000000     0.00000000000000
O     0.00000000000000     4.19931799303236     0.00000000000000