CRYSTAL
# Primitive lattice vectors in Angstrom
PRIMVEC
 1.19370793695053 3.37631590789570 2.06756279619655
 1.19370793695053 3.37631590789570 -2.06756279619655
 -2.38741587390107 3.37631590789570 -0.00000000000000
# Cartesian coordinates in Angstrom.
PRIMCOORD
 3 1
Eu     0.00000000000000     7.59671079276533     0.00000000000000
Eu    -0.00000000000000     2.53223693092178     0.00000000000000
O     0.00000000000000     0.00000000000000     0.00000000000000