CRYSTAL
# Primitive lattice vectors in Angstrom
PRIMVEC
 1.01747670186169 2.87785870234289 1.76232134314206
 1.01747670186169 2.87785870234289 -1.76232134314206
 -2.03495340372338 2.87785870234289 -0.00000000000000
# Cartesian coordinates in Angstrom.
PRIMCOORD
 3 1
O     0.00000000000000     0.00000000000000     0.00000000000000
F     0.00000000000000     6.47518208027151     0.00000000000000
F     0.00000000000000     2.15839402675717    -0.00000000000000