CRYSTAL
# Primitive lattice vectors in Angstrom
PRIMVEC
 0.86242292949950 2.43930040679946 1.49376033150553
 0.86242292949950 2.43930040679946 -1.49376033150553
 -1.72484585899900 2.43930040679946 -0.00000000000000
# Cartesian coordinates in Angstrom.
PRIMCOORD
 2 1
O     0.00000000000000     3.65895061019919     0.00000000000000
F     0.00000000000000     0.00000000000000     0.00000000000000