CRYSTAL
# Primitive lattice vectors in Angstrom
PRIMVEC
 1.01607500177343 2.87389409579250 1.75989352737222
 1.01607500177343 2.87389409579250 -1.75989352737222
 -2.03215000354686 2.87389409579250 -0.00000000000000
# Cartesian coordinates in Angstrom.
PRIMCOORD
 3 1
O     0.00000000000000     6.46626171553314     0.00000000000000
O     0.00000000000000     2.15542057184438    -0.00000000000000
F     0.00000000000000     0.00000000000000     0.00000000000000