CRYSTAL
# Primitive lattice vectors in Angstrom
PRIMVEC
 1.00000053299819 2.82842863229274 1.73205173074883
 1.00000053299819 2.82842863229274 -1.73205173074883
 -2.00000106599639 2.82842863229274 -0.00000000000000
# Cartesian coordinates in Angstrom.
PRIMCOORD
 3 1
Fe     0.00000000000000     6.36396442265865     0.00000000000000
Fe    -0.00000000000000     2.12132147421955     0.00000000000000
O     0.00000000000000     0.00000000000000     0.00000000000000