CRYSTAL
# Primitive lattice vectors in Angstrom
PRIMVEC
 0.93711651136331 2.65056575978751 1.62313341029295
 0.93711651136331 2.65056575978751 -1.62313341029295
 -1.87423302272662 2.65056575978751 -0.00000000000000
# Cartesian coordinates in Angstrom.
PRIMCOORD
 3 1
Fe     0.00000000000000     0.00000000000000     0.00000000000000
O     0.00000000000000     5.96377295952190     0.00000000000000
O    -0.00000000000000     1.98792431984063     0.00000000000000