CRYSTAL
# Primitive lattice vectors in Angstrom
PRIMVEC
 0.83537565567235 2.36279916385632 1.44691307903068
 0.83537565567235 2.36279916385632 -1.44691307903068
 -1.67075131134471 2.36279916385632 -0.00000000000000
# Cartesian coordinates in Angstrom.
PRIMCOORD
 2 1
Fe     0.00000000000000     0.00000000000000     0.00000000000000
O     0.00000000000000     3.54419874578448     0.00000000000000