CRYSTAL
# Primitive lattice vectors in Angstrom
PRIMVEC
 1.53685069797613 4.34687020084081 2.66190349254235
 1.53685069797613 4.34687020084081 -2.66190349254235
 -3.07370139595227 4.34687020084081 -0.00000000000000
# Cartesian coordinates in Angstrom.
PRIMCOORD
 3 1
Fr     0.00000000000000     9.78045795189182     0.00000000000000
Fr    -0.00000000000000     3.26015265063061     0.00000000000000
O     0.00000000000000     0.00000000000000     0.00000000000000