CRYSTAL
# Primitive lattice vectors in Angstrom
PRIMVEC
 1.26082994295130 3.56616561033565 2.18382152089582
 1.26082994295130 3.56616561033565 -2.18382152089582
 -2.52165988590260 3.56616561033565 -0.00000000000000
# Cartesian coordinates in Angstrom.
PRIMCOORD
 3 1
Fr     0.00000000000000     0.00000000000000     0.00000000000000
O     0.00000000000000     8.02387262325521     0.00000000000000
O     0.00000000000000     2.67462420775174    -0.00000000000000