CRYSTAL
# Primitive lattice vectors in Angstrom
PRIMVEC
 1.23511161163009 3.49342318442354 2.13927606436160
 1.23511161163009 3.49342318442354 -2.13927606436160
 -2.47022322326019 3.49342318442354 -0.00000000000000
# Cartesian coordinates in Angstrom.
PRIMCOORD
 2 1
Fr     0.00000000000000     0.00000000000000     0.00000000000000
O     0.00000000000000     5.24013477663531    -0.00000000000000