CRYSTAL
# Primitive lattice vectors in Angstrom
PRIMVEC
 0.99848638797307 2.82414598343287 1.72942915463528
 0.99848638797307 2.82414598343287 -1.72942915463528
 -1.99697277594613 2.82414598343287 -0.00000000000000
# Cartesian coordinates in Angstrom.
PRIMCOORD
 3 1
Ga     0.00000000000000     0.00000000000000     0.00000000000000
O     0.00000000000000     6.35432846272395     0.00000000000000
O     0.00000000000000     2.11810948757465    -0.00000000000000