CRYSTAL
# Primitive lattice vectors in Angstrom
PRIMVEC
 1.21750860614611 3.44363436623559 2.10878676449743
 1.21750860614611 3.44363436623559 -2.10878676449743
 -2.43501721229222 3.44363436623559 -0.00000000000000
# Cartesian coordinates in Angstrom.
PRIMCOORD
 3 1
Ga    -0.00000000000000     7.74817732403008     0.00000000000000
Ga    -0.00000000000000     2.58272577467669     0.00000000000000
O     0.00000000000000     0.00000000000000     0.00000000000000