CRYSTAL
# Primitive lattice vectors in Angstrom
PRIMVEC
 0.93920653248127 2.65647723220883 1.62675343305814
 0.93920653248127 2.65647723220883 -1.62675343305814
 -1.87841306496253 2.65647723220883 -0.00000000000000
# Cartesian coordinates in Angstrom.
PRIMCOORD
 2 1
Ga     0.00000000000000     0.00000000000000     0.00000000000000
O     0.00000000000000     3.98471584831324     0.00000000000000