CRYSTAL
# Primitive lattice vectors in Angstrom
PRIMVEC
 0.98814159450306 2.79488648898241 1.71151144675143
 0.98814159450306 2.79488648898241 -1.71151144675143
 -1.97628318900612 2.79488648898241 -0.00000000000000
# Cartesian coordinates in Angstrom.
PRIMCOORD
 2 1
Gd     0.00000000000000     0.00000000000000     0.00000000000000
O     0.00000000000000     4.19232973347362     0.00000000000000