CRYSTAL
# Primitive lattice vectors in Angstrom
PRIMVEC
 1.08319578205249 3.06374033136794 1.87615012905923
 1.08319578205249 3.06374033136794 -1.87615012905922
 -2.16639156410499 3.06374033136794 -0.00000000000000
# Cartesian coordinates in Angstrom.
PRIMCOORD
 3 1
Gd     0.00000000000000     0.00000000000000     0.00000000000000
O     0.00000000000000     6.89341574557786     0.00000000000000
O     0.00000000000000     2.29780524852595    -0.00000000000000