CRYSTAL
# Primitive lattice vectors in Angstrom
PRIMVEC
 1.19725700602266 3.38635419112691 2.07370996414905
 1.19725700602266 3.38635419112691 -2.07370996414905
 -2.39451401204533 3.38635419112691 -0.00000000000000
# Cartesian coordinates in Angstrom.
PRIMCOORD
 3 1
Gd     0.00000000000000     7.61929693003556     0.00000000000000
Gd    -0.00000000000000     2.53976564334518    -0.00000000000000
O     0.00000000000000     0.00000000000000     0.00000000000000