CRYSTAL
# Primitive lattice vectors in Angstrom
PRIMVEC
 0.98618989120688 2.78936623844003 1.70813099748114
 0.98618989120688 2.78936623844003 -1.70813099748114
 -1.97237978241376 2.78936623844003 -0.00000000000000
# Cartesian coordinates in Angstrom.
PRIMCOORD
 3 1
Ge     0.00000000000000     0.00000000000000     0.00000000000000
O     0.00000000000000     6.27607403649008     0.00000000000000
O     0.00000000000000     2.09202467883003     0.00000000000000