CRYSTAL
# Primitive lattice vectors in Angstrom
PRIMVEC
 0.97354030905550 2.75358781716636 1.68622127850043
 0.97354030905550 2.75358781716636 -1.68622127850043
 -1.94708061811099 2.75358781716636 -0.00000000000000
# Cartesian coordinates in Angstrom.
PRIMCOORD
 2 1
Ge     0.00000000000000     0.00000000000000     0.00000000000000
O     0.00000000000000     4.13038172574954     0.00000000000000