CRYSTAL
# Primitive lattice vectors in Angstrom
PRIMVEC
 1.19109947403465 3.36893806063052 2.06304480589658
 1.19109947403465 3.36893806063052 -2.06304480589658
 -2.38219894806930 3.36893806063052 -0.00000000000000
# Cartesian coordinates in Angstrom.
PRIMCOORD
 3 1
Ge    -0.00000000000000     7.58011063641867     0.00000000000000
Ge    -0.00000000000000     2.52670354547289     0.00000000000000
O     0.00000000000000     0.00000000000000     0.00000000000000