CRYSTAL
# Primitive lattice vectors in Angstrom
PRIMVEC
 0.74110688019714 2.09616680228563 1.28363477034032
 0.74110688019714 2.09616680228563 -1.28363477034032
 -1.48221376039429 2.09616680228563 -0.00000000000000
# Cartesian coordinates in Angstrom.
PRIMCOORD
 3 1
H     0.00000000000000     4.71637530514267     0.00000000000000
H     0.00000000000000     1.57212510171422     0.00000000000000
O     0.00000000000000     0.00000000000000     0.00000000000000