CRYSTAL
# Primitive lattice vectors in Angstrom
PRIMVEC
 0.69868412487063 1.97617713041363 1.21015640271772
 0.69868412487063 1.97617713041363 -1.21015640271772
 -1.39736824974125 1.97617713041363 -0.00000000000000
# Cartesian coordinates in Angstrom.
PRIMCOORD
 2 1
H     0.00000000000000     0.00000000000000     0.00000000000000
O     0.00000000000000     2.96426569562045     0.00000000000000