CRYSTAL
# Primitive lattice vectors in Angstrom
PRIMVEC
 0.86622023237000 2.45004080123925 1.50033745300896
 0.86622023237000 2.45004080123925 -1.50033745300895
 -1.73244046474000 2.45004080123925 -0.00000000000000
# Cartesian coordinates in Angstrom.
PRIMCOORD
 3 1
H     0.00000000000000     0.00000000000000     0.00000000000000
O     0.00000000000000     5.51259180278831     0.00000000000000
O    -0.00000000000000     1.83753060092944     0.00000000000000