CRYSTAL
# Primitive lattice vectors in Angstrom
PRIMVEC
 0.94460921771398 2.67175833366749 1.63611115837850
 0.94460921771398 2.67175833366749 -1.63611115837850
 -1.88921843542795 2.67175833366749 -0.00000000000000
# Cartesian coordinates in Angstrom.
PRIMCOORD
 3 1
He     0.00000000000000     0.00000000000000     0.00000000000000
O     0.00000000000000     6.01145625075185     0.00000000000000
O    -0.00000000000000     2.00381875025062     0.00000000000000