CRYSTAL
# Primitive lattice vectors in Angstrom
PRIMVEC
 1.46344736173251 4.13925421356247 2.53476518472333
 1.46344736173251 4.13925421356247 -2.53476518472333
 -2.92689472346501 4.13925421356247 -0.00000000000000
# Cartesian coordinates in Angstrom.
PRIMCOORD
 3 1
He     0.00000000000000     9.31332198051555     0.00000000000000
He     0.00000000000000     3.10444066017185     0.00000000000000
O     0.00000000000000     0.00000000000000     0.00000000000000