CRYSTAL
# Primitive lattice vectors in Angstrom
PRIMVEC
 1.02353837675859 2.89500370804267 1.77282047204245
 1.02353837675859 2.89500370804267 -1.77282047204245
 -2.04707675351717 2.89500370804267 -0.00000000000000
# Cartesian coordinates in Angstrom.
PRIMCOORD
 2 1
He     0.00000000000000     0.00000000000000     0.00000000000000
O     0.00000000000000     4.34250556206401     0.00000000000000