CRYSTAL
# Primitive lattice vectors in Angstrom
PRIMVEC
 0.93766782112733 2.65212509927819 1.62408830681494
 0.93766782112733 2.65212509927819 -1.62408830681494
 -1.87533564225466 2.65212509927819 -0.00000000000000
# Cartesian coordinates in Angstrom.
PRIMCOORD
 2 1
Hf     0.00000000000000     0.00000000000000     0.00000000000000
O     0.00000000000000     3.97818764891729     0.00000000000000