CRYSTAL
# Primitive lattice vectors in Angstrom
PRIMVEC
 1.18284095322536 3.34557943636325 2.04874062825952
 1.18284095322536 3.34557943636325 -2.04874062825952
 -2.36568190645072 3.34557943636325 -0.00000000000000
# Cartesian coordinates in Angstrom.
PRIMCOORD
 3 1
Hf     0.00000000000000     7.52755373181730     0.00000000000000
Hf     0.00000000000000     2.50918457727243    -0.00000000000000
O     0.00000000000000     0.00000000000000     0.00000000000000