CRYSTAL
# Primitive lattice vectors in Angstrom
PRIMVEC
 1.04060517613402 2.94327590632876 1.80238103568329
 1.04060517613402 2.94327590632876 -1.80238103568329
 -2.08121035226805 2.94327590632876 -0.00000000000000
# Cartesian coordinates in Angstrom.
PRIMCOORD
 3 1
Hf     0.00000000000000     0.00000000000000     0.00000000000000
O     0.00000000000000     6.62237078923971     0.00000000000000
O     0.00000000000000     2.20745692974657     0.00000000000000