CRYSTAL
# Primitive lattice vectors in Angstrom
PRIMVEC
 1.10169465816402 3.11606305433910 1.90819112236731
 1.10169465816402 3.11606305433910 -1.90819112236731
 -2.20338931632804 3.11606305433910 -0.00000000000000
# Cartesian coordinates in Angstrom.
PRIMCOORD
 3 1
Hg     0.00000000000000     0.00000000000000     0.00000000000000
O     0.00000000000000     7.01114187226298     0.00000000000000
O     0.00000000000000     2.33704729075433     0.00000000000000