CRYSTAL
# Primitive lattice vectors in Angstrom
PRIMVEC
 1.24045177441968 3.50852744570816 2.14852549763385
 1.24045177441968 3.50852744570816 -2.14852549763385
 -2.48090354883936 3.50852744570816 -0.00000000000000
# Cartesian coordinates in Angstrom.
PRIMCOORD
 3 1
Hg     0.00000000000000     7.89418675284337     0.00000000000000
Hg     0.00000000000000     2.63139558428112     0.00000000000000
O     0.00000000000000     0.00000000000000     0.00000000000000