CRYSTAL
# Primitive lattice vectors in Angstrom
PRIMVEC
 1.00463455877583 2.84153563649896 1.74007809883927
 1.00463455877583 2.84153563649896 -1.74007809883927
 -2.00926911755165 2.84153563649896 -0.00000000000000
# Cartesian coordinates in Angstrom.
PRIMCOORD
 2 1
Hg     0.00000000000000     0.00000000000000     0.00000000000000
O     0.00000000000000     4.26230345474845     0.00000000000000