CRYSTAL
# Primitive lattice vectors in Angstrom
PRIMVEC
 0.98505272386731 2.78614984349142 1.70616136587230
 0.98505272386731 2.78614984349142 -1.70616136587229
 -1.97010544773462 2.78614984349142 -0.00000000000000
# Cartesian coordinates in Angstrom.
PRIMCOORD
 2 1
Ho     0.00000000000000     0.00000000000000     0.00000000000000
O     0.00000000000000     4.17922476523712     0.00000000000000