CRYSTAL
# Primitive lattice vectors in Angstrom
PRIMVEC
 1.07854923962689 3.05059792473507 1.86810208149855
 1.07854923962689 3.05059792473507 -1.86810208149855
 -2.15709847925377 3.05059792473507 -0.00000000000000
# Cartesian coordinates in Angstrom.
PRIMCOORD
 3 1
Ho     0.00000000000000     0.00000000000000     0.00000000000000
O     0.00000000000000     6.86384533065390     0.00000000000000
O     0.00000000000000     2.28794844355130    -0.00000000000000