CRYSTAL
# Primitive lattice vectors in Angstrom
PRIMVEC
 1.21494000963108 3.43636927817995 2.10433782482926
 1.21494000963108 3.43636927817995 -2.10433782482926
 -2.42988001926217 3.43636927817995 -0.00000000000000
# Cartesian coordinates in Angstrom.
PRIMCOORD
 3 1
Ho     0.00000000000000     7.73183087590489     0.00000000000000
Ho     0.00000000000000     2.57727695863496     0.00000000000000
O     0.00000000000000     0.00000000000000     0.00000000000000