CRYSTAL
# Primitive lattice vectors in Angstrom
PRIMVEC
 1.34928422476395 3.81635210031450 2.33702883114235
 1.34928422476395 3.81635210031450 -2.33702883114235
 -2.69856844952790 3.81635210031450 -0.00000000000000
# Cartesian coordinates in Angstrom.
PRIMCOORD
 3 1
I     0.00000000000000     8.58679222570762     0.00000000000000
I    -0.00000000000000     2.86226407523587     0.00000000000000
O     0.00000000000000     0.00000000000000     0.00000000000000