CRYSTAL
# Primitive lattice vectors in Angstrom
PRIMVEC
 1.08946092972534 3.08146084498636 1.88700168314552
 1.08946092972534 3.08146084498636 -1.88700168314552
 -2.17892185945068 3.08146084498636 -0.00000000000000
# Cartesian coordinates in Angstrom.
PRIMCOORD
 2 1
I     0.00000000000000     0.00000000000000     0.00000000000000
O     0.00000000000000     4.62219126747954    -0.00000000000000