CRYSTAL
# Primitive lattice vectors in Angstrom
PRIMVEC
 1.07455680631368 3.03930561805825 1.86118698415425
 1.07455680631368 3.03930561805825 -1.86118698415424
 -2.14911361262736 3.03930561805825 -0.00000000000000
# Cartesian coordinates in Angstrom.
PRIMCOORD
 3 1
In     0.00000000000000     0.00000000000000     0.00000000000000
O     0.00000000000000     6.83843764063107     0.00000000000000
O    -0.00000000000000     2.27947921354369    -0.00000000000000