CRYSTAL
# Primitive lattice vectors in Angstrom
PRIMVEC
 1.01246452690019 2.86368213072783 1.75364000145232
 1.01246452690019 2.86368213072783 -1.75364000145232
 -2.02492905380039 2.86368213072783 -0.00000000000000
# Cartesian coordinates in Angstrom.
PRIMCOORD
 2 1
In     0.00000000000000     0.00000000000000     0.00000000000000
O     0.00000000000000     4.29552319609174     0.00000000000000