CRYSTAL
# Primitive lattice vectors in Angstrom
PRIMVEC
 1.30878870007330 3.70181345984863 2.26688852489898
 1.30878870007330 3.70181345984863 -2.26688852489898
 -2.61757740014660 3.70181345984863 -0.00000000000000
# Cartesian coordinates in Angstrom.
PRIMCOORD
 3 1
In     0.00000000000000     8.32908028465941     0.00000000000000
In     0.00000000000000     2.77636009488647     0.00000000000000
O     0.00000000000000     0.00000000000000     0.00000000000000