CRYSTAL
# Primitive lattice vectors in Angstrom
PRIMVEC
 1.11150786813363 3.14381900359796 1.92518810062001
 1.11150786813363 3.14381900359796 -1.92518810062001
 -2.22301573626725 3.14381900359796 -0.00000000000000
# Cartesian coordinates in Angstrom.
PRIMCOORD
 3 1
Ir     0.00000000000000     7.07359275809540     0.00000000000000
Ir    -0.00000000000000     2.35786425269847     0.00000000000000
O     0.00000000000000     0.00000000000000     0.00000000000000