CRYSTAL
# Primitive lattice vectors in Angstrom
PRIMVEC
 1.01160544084158 2.86125226841714 1.75215202075072
 1.01160544084158 2.86125226841714 -1.75215202075072
 -2.02321088168315 2.86125226841714 -0.00000000000000
# Cartesian coordinates in Angstrom.
PRIMCOORD
 3 1
Ir     0.00000000000000     0.00000000000000     0.00000000000000
O     0.00000000000000     6.43781760393856     0.00000000000000
O     0.00000000000000     2.14593920131286     0.00000000000000