CRYSTAL
# Primitive lattice vectors in Angstrom
PRIMVEC
 0.92714434987809 2.62236022775036 1.60586111993926
 0.92714434987809 2.62236022775036 -1.60586111993926
 -1.85428869975618 2.62236022775036 -0.00000000000000
# Cartesian coordinates in Angstrom.
PRIMCOORD
 2 1
Ir     0.00000000000000     0.00000000000000     0.00000000000000
O     0.00000000000000     3.93354034162553     0.00000000000000