CRYSTAL
# Primitive lattice vectors in Angstrom
PRIMVEC
 1.32257317780496 3.74080185056532 2.29076394068602
 1.32257317780496 3.74080185056532 -2.29076394068602
 -2.64514635560993 3.74080185056532 -0.00000000000000
# Cartesian coordinates in Angstrom.
PRIMCOORD
 3 1
K     0.00000000000000     8.41680416377197     0.00000000000000
K     0.00000000000000     2.80560138792399     0.00000000000000
O     0.00000000000000     0.00000000000000     0.00000000000000