CRYSTAL
# Primitive lattice vectors in Angstrom
PRIMVEC
 1.13292086626426 3.20438410833279 1.96227650132465
 1.13292086626426 3.20438410833279 -1.96227650132465
 -2.26584173252852 3.20438410833279 -0.00000000000000
# Cartesian coordinates in Angstrom.
PRIMCOORD
 2 1
K     0.00000000000000     0.00000000000000     0.00000000000000
O     0.00000000000000     4.80657616249918     0.00000000000000