CRYSTAL
# Primitive lattice vectors in Angstrom
PRIMVEC
 1.25691472974275 3.55509171509741 2.17704017269614
 1.25691472974275 3.55509171509741 -2.17704017269614
 -2.51382945948550 3.55509171509741 -0.00000000000000
# Cartesian coordinates in Angstrom.
PRIMCOORD
 3 1
K     0.00000000000000     0.00000000000000     0.00000000000000
O     0.00000000000000     7.99895635896918     0.00000000000000
O     0.00000000000000     2.66631878632306     0.00000000000000