CRYSTAL
# Primitive lattice vectors in Angstrom
PRIMVEC
 1.59352089323056 4.50715771826308 2.76005914999786
 1.59352089323056 4.50715771826308 -2.76005914999786
 -3.18704178646111 4.50715771826308 -0.00000000000000
# Cartesian coordinates in Angstrom.
PRIMCOORD
 3 1
Kr     0.00000000000000    10.14110486609193     0.00000000000000
Kr    -0.00000000000000     3.38036828869731     0.00000000000000
O     0.00000000000000     0.00000000000000     0.00000000000000