CRYSTAL
# Primitive lattice vectors in Angstrom
PRIMVEC
 1.17376193639185 3.31990009888531 2.03301530982111
 1.17376193639185 3.31990009888531 -2.03301530982111
 -2.34752387278369 3.31990009888531 -0.00000000000000
# Cartesian coordinates in Angstrom.
PRIMCOORD
 3 1
Kr     0.00000000000000     0.00000000000000     0.00000000000000
O     0.00000000000000     7.46977522249195     0.00000000000000
O     0.00000000000000     2.48992507416398    -0.00000000000000