CRYSTAL
# Primitive lattice vectors in Angstrom
PRIMVEC
 1.10891136027622 3.13647497034445 1.92069081708873
 1.10891136027622 3.13647497034445 -1.92069081708873
 -2.21782272055244 3.13647497034445 -0.00000000000000
# Cartesian coordinates in Angstrom.
PRIMCOORD
 2 1
Kr     0.00000000000000     0.00000000000000     0.00000000000000
O     0.00000000000000     4.70471245551668     0.00000000000000