CRYSTAL
# Primitive lattice vectors in Angstrom
PRIMVEC
 1.30391797956634 3.68803698184968 2.25845218951146
 1.30391797956634 3.68803698184968 -2.25845218951146
 -2.60783595913268 3.68803698184968 -0.00000000000000
# Cartesian coordinates in Angstrom.
PRIMCOORD
 3 1
La     0.00000000000000     8.29808320916178     0.00000000000000
La     0.00000000000000     2.76602773638726    -0.00000000000000
O     0.00000000000000     0.00000000000000     0.00000000000000