CRYSTAL
# Primitive lattice vectors in Angstrom
PRIMVEC
 1.17662317391204 3.32799290069777 2.03797111857861
 1.17662317391204 3.32799290069777 -2.03797111857861
 -2.35324634782408 3.32799290069777 -0.00000000000000
# Cartesian coordinates in Angstrom.
PRIMCOORD
 3 1
La     0.00000000000000     0.00000000000000     0.00000000000000
O     0.00000000000000     7.48798402656999     0.00000000000000
O    -0.00000000000000     2.49599467552333    -0.00000000000000