CRYSTAL
# Primitive lattice vectors in Angstrom
PRIMVEC
 1.05411553573294 2.98148897388340 1.82578166493714
 1.05411553573294 2.98148897388340 -1.82578166493713
 -2.10823107146587 2.98148897388340 -0.00000000000000
# Cartesian coordinates in Angstrom.
PRIMCOORD
 2 1
La     0.00000000000000     0.00000000000000     0.00000000000000
O     0.00000000000000     4.47223346082510     0.00000000000000