CRYSTAL
# Primitive lattice vectors in Angstrom
PRIMVEC
 0.94649736705942 2.67709882649171 1.63938152897708
 0.94649736705942 2.67709882649171 -1.63938152897708
 -1.89299473411884 2.67709882649171 -0.00000000000000
# Cartesian coordinates in Angstrom.
PRIMCOORD
 3 1
Li     0.00000000000000     0.00000000000000     0.00000000000000
O     0.00000000000000     6.02347235960635     0.00000000000000
O     0.00000000000000     2.00782411986878     0.00000000000000