CRYSTAL
# Primitive lattice vectors in Angstrom
PRIMVEC
 0.94393566752508 2.66985324604335 1.63494453522989
 0.94393566752508 2.66985324604335 -1.63494453522989
 -1.88787133505017 2.66985324604335 -0.00000000000000
# Cartesian coordinates in Angstrom.
PRIMCOORD
 3 1
Li     0.00000000000000     6.00716980359753     0.00000000000000
Li     0.00000000000000     2.00238993453251    -0.00000000000000
O     0.00000000000000     0.00000000000000     0.00000000000000