CRYSTAL
# Primitive lattice vectors in Angstrom
PRIMVEC
 0.83034590031363 2.34857286736886 1.43820128719972
 0.83034590031363 2.34857286736886 -1.43820128719972
 -1.66069180062725 2.34857286736886 -0.00000000000000
# Cartesian coordinates in Angstrom.
PRIMCOORD
 2 1
Li     0.00000000000000     0.00000000000000     0.00000000000000
O    -0.00000000000000     3.52285930105328    -0.00000000000000