CRYSTAL
# Primitive lattice vectors in Angstrom
PRIMVEC
 1.22522133457142 3.46544925651953 2.12214560199505
 1.22522133457142 3.46544925651953 -2.12214560199504
 -2.45044266914284 3.46544925651953 -0.00000000000000
# Cartesian coordinates in Angstrom.
PRIMCOORD
 3 1
Lu     0.00000000000000     7.79726082716894     0.00000000000000
Lu     0.00000000000000     2.59908694238965     0.00000000000000
O     0.00000000000000     0.00000000000000     0.00000000000000