CRYSTAL
# Primitive lattice vectors in Angstrom
PRIMVEC
 1.08227875761257 3.06114659456799 1.87456179613749
 1.08227875761257 3.06114659456799 -1.87456179613749
 -2.16455751522513 3.06114659456799 -0.00000000000000
# Cartesian coordinates in Angstrom.
PRIMCOORD
 3 1
Lu     0.00000000000000     0.00000000000000     0.00000000000000
O     0.00000000000000     6.88757983777797     0.00000000000000
O    -0.00000000000000     2.29585994592599     0.00000000000000