CRYSTAL
# Primitive lattice vectors in Angstrom
PRIMVEC
 0.96673917993824 2.73435131909219 1.67444137732050
 0.96673917993824 2.73435131909219 -1.67444137732050
 -1.93347835987647 2.73435131909219 -0.00000000000000
# Cartesian coordinates in Angstrom.
PRIMCOORD
 2 1
Lu     0.00000000000000     0.00000000000000     0.00000000000000
O     0.00000000000000     4.10152697863829     0.00000000000000