CRYSTAL
# Primitive lattice vectors in Angstrom
PRIMVEC
 1.15113803020554 3.25591002896024 1.99382955484074
 1.15113803020554 3.25591002896024 -1.99382955484074
 -2.30227606041107 3.25591002896024 -0.00000000000000
# Cartesian coordinates in Angstrom.
PRIMCOORD
 3 1
Mg     0.00000000000000     7.32579756516053     0.00000000000000
Mg    -0.00000000000000     2.44193252172018     0.00000000000000
O     0.00000000000000     0.00000000000000     0.00000000000000