CRYSTAL
# Primitive lattice vectors in Angstrom
PRIMVEC
 1.01338914924846 2.86629735765780 1.75524149433733
 1.01338914924846 2.86629735765780 -1.75524149433733
 -2.02677829849691 2.86629735765780 -0.00000000000000
# Cartesian coordinates in Angstrom.
PRIMCOORD
 3 1
Mg     0.00000000000000     0.00000000000000     0.00000000000000
O     0.00000000000000     6.44916905473005     0.00000000000000
O     0.00000000000000     2.14972301824335    -0.00000000000000