CRYSTAL
# Primitive lattice vectors in Angstrom
PRIMVEC
 0.86840506568406 2.45622044304779 1.50412169531498
 0.86840506568406 2.45622044304779 -1.50412169531498
 -1.73681013136812 2.45622044304779 -0.00000000000000
# Cartesian coordinates in Angstrom.
PRIMCOORD
 2 1
Mg     0.00000000000000     0.00000000000000     0.00000000000000
O     0.00000000000000     3.68433066457169     0.00000000000000