CRYSTAL
# Primitive lattice vectors in Angstrom
PRIMVEC
 0.94301125077600 2.66723860063566 1.63334339845310
 0.94301125077600 2.66723860063566 -1.63334339845310
 -1.88602250155199 2.66723860063566 -0.00000000000000
# Cartesian coordinates in Angstrom.
PRIMCOORD
 3 1
Mn     0.00000000000000     0.00000000000000     0.00000000000000
O     0.00000000000000     6.00128685143023     0.00000000000000
O    -0.00000000000000     2.00042895047674    -0.00000000000000