CRYSTAL
# Primitive lattice vectors in Angstrom
PRIMVEC
 1.00198839941814 2.83405116759529 1.73549481638684
 1.00198839941814 2.83405116759529 -1.73549481638684
 -2.00397679883629 2.83405116759529 -0.00000000000000
# Cartesian coordinates in Angstrom.
PRIMCOORD
 3 1
Mn     0.00000000000000     6.37661512708941     0.00000000000000
Mn     0.00000000000000     2.12553837569647    -0.00000000000000
O     0.00000000000000     0.00000000000000     0.00000000000000