CRYSTAL
# Primitive lattice vectors in Angstrom
PRIMVEC
 0.83791721882833 2.36998779002595 1.45131519554749
 0.83791721882833 2.36998779002595 -1.45131519554748
 -1.67583443765667 2.36998779002595 -0.00000000000000
# Cartesian coordinates in Angstrom.
PRIMCOORD
 2 1
Mn     0.00000000000000     0.00000000000000     0.00000000000000
O     0.00000000000000     3.55498168503893     0.00000000000000