CRYSTAL
# Primitive lattice vectors in Angstrom
PRIMVEC
 0.90122087717967 2.54903757440253 1.56096034811698
 0.90122087717967 2.54903757440253 -1.56096034811698
 -1.80244175435934 2.54903757440253 -0.00000000000000
# Cartesian coordinates in Angstrom.
PRIMCOORD
 2 1
Mo     0.00000000000000     0.00000000000000     0.00000000000000
O     0.00000000000000     3.82355636160380     0.00000000000000