CRYSTAL
# Primitive lattice vectors in Angstrom
PRIMVEC
 1.10555452207368 3.12698039811901 1.91487660276914
 1.10555452207368 3.12698039811901 -1.91487660276914
 -2.21110904414736 3.12698039811901 -0.00000000000000
# Cartesian coordinates in Angstrom.
PRIMCOORD
 3 1
Mo     0.00000000000000     7.03570589576777     0.00000000000000
Mo     0.00000000000000     2.34523529858926     0.00000000000000
O     0.00000000000000     0.00000000000000     0.00000000000000