CRYSTAL
# Primitive lattice vectors in Angstrom
PRIMVEC
 1.00375109415536 2.83903682120270 1.73854789322994
 1.00375109415536 2.83903682120270 -1.73854789322994
 -2.00750218831073 2.83903682120270 -0.00000000000000
# Cartesian coordinates in Angstrom.
PRIMCOORD
 3 1
Mo     0.00000000000000     0.00000000000000     0.00000000000000
O     0.00000000000000     6.38783284770606     0.00000000000000
O     0.00000000000000     2.12927761590202     0.00000000000000