CRYSTAL
# Primitive lattice vectors in Angstrom
PRIMVEC
 0.96811160068568 2.73823311116082 1.67681847978442
 0.96811160068568 2.73823311116082 -1.67681847978442
 -1.93622320137135 2.73823311116082 -0.00000000000000
# Cartesian coordinates in Angstrom.
PRIMCOORD
 3 1
N     0.00000000000000     6.16102450011183     0.00000000000000
N    -0.00000000000000     2.05367483337061     0.00000000000000
O     0.00000000000000     0.00000000000000     0.00000000000000