CRYSTAL
# Primitive lattice vectors in Angstrom
PRIMVEC
 0.95385902647986 2.69792074367964 1.65213229712131
 0.95385902647986 2.69792074367964 -1.65213229712131
 -1.90771805295973 2.69792074367964 -0.00000000000000
# Cartesian coordinates in Angstrom.
PRIMCOORD
 3 1
N     0.00000000000000     0.00000000000000     0.00000000000000
O     0.00000000000000     6.07032167327919     0.00000000000000
O     0.00000000000000     2.02344055775973     0.00000000000000