CRYSTAL
# Primitive lattice vectors in Angstrom
PRIMVEC
 0.80503819872476 2.27699187772993 1.39436706222502
 0.80503819872476 2.27699187772993 -1.39436706222502
 -1.61007639744952 2.27699187772993 -0.00000000000000
# Cartesian coordinates in Angstrom.
PRIMCOORD
 2 1
N     0.00000000000000     0.00000000000000     0.00000000000000
O     0.00000000000000     3.41548781659490     0.00000000000000