CRYSTAL
# Primitive lattice vectors in Angstrom
PRIMVEC
 0.98113957259898 2.77508178030085 1.69938358905785
 0.98113957259898 2.77508178030085 -1.69938358905785
 -1.96227914519797 2.77508178030085 -0.00000000000000
# Cartesian coordinates in Angstrom.
PRIMCOORD
 2 1
Na     0.00000000000000     0.00000000000000     0.00000000000000
O     0.00000000000000     4.16262267045127     0.00000000000000