CRYSTAL
# Primitive lattice vectors in Angstrom
PRIMVEC
 1.07652788458098 3.04488066929447 1.86460099185890
 1.07652788458098 3.04488066929447 -1.86460099185890
 -2.15305576916196 3.04488066929447 -0.00000000000000
# Cartesian coordinates in Angstrom.
PRIMCOORD
 3 1
Na     0.00000000000000     0.00000000000000     0.00000000000000
O     0.00000000000000     6.85098150591257     0.00000000000000
O    -0.00000000000000     2.28366050197086     0.00000000000000