CRYSTAL
# Primitive lattice vectors in Angstrom
PRIMVEC
 1.14148516985961 3.22860761692643 1.97711031028323
 1.14148516985961 3.22860761692643 -1.97711031028323
 -2.28297033971922 3.22860761692643 -0.00000000000000
# Cartesian coordinates in Angstrom.
PRIMCOORD
 3 1
Na     0.00000000000000     7.26436713808447     0.00000000000000
Na    -0.00000000000000     2.42145571269482     0.00000000000000
O     0.00000000000000     0.00000000000000     0.00000000000000