CRYSTAL
# Primitive lattice vectors in Angstrom
PRIMVEC
 0.91306623416419 2.58254130339985 1.58147710824796
 0.91306623416419 2.58254130339985 -1.58147710824796
 -1.82613246832838 2.58254130339985 -0.00000000000000
# Cartesian coordinates in Angstrom.
PRIMCOORD
 2 1
Nb     0.00000000000000     0.00000000000000     0.00000000000000
O     0.00000000000000     3.87381195509978    -0.00000000000000