CRYSTAL
# Primitive lattice vectors in Angstrom
PRIMVEC
 1.02060068611101 2.88669466413094 1.76773224258392
 1.02060068611101 2.88669466413094 -1.76773224258392
 -2.04120137222201 2.88669466413094 -0.00000000000000
# Cartesian coordinates in Angstrom.
PRIMCOORD
 3 1
Nb     0.00000000000000     0.00000000000000     0.00000000000000
O     0.00000000000000     6.49506299429462     0.00000000000000
O     0.00000000000000     2.16502099809821    -0.00000000000000