CRYSTAL
# Primitive lattice vectors in Angstrom
PRIMVEC
 1.13772422691771 3.21797006389495 1.97059616602350
 1.13772422691771 3.21797006389495 -1.97059616602350
 -2.27544845383543 3.21797006389495 -0.00000000000000
# Cartesian coordinates in Angstrom.
PRIMCOORD
 3 1
Nb     0.00000000000000     7.24043264376364     0.00000000000000
Nb     0.00000000000000     2.41347754792121     0.00000000000000
O     0.00000000000000     0.00000000000000     0.00000000000000