CRYSTAL
# Primitive lattice vectors in Angstrom
PRIMVEC
 1.09974118909378 3.11053780943348 1.90480761468664
 1.09974118909378 3.11053780943348 -1.90480761468664
 -2.19948237818756 3.11053780943348 -0.00000000000000
# Cartesian coordinates in Angstrom.
PRIMCOORD
 3 1
Nd     0.00000000000000     0.00000000000000     0.00000000000000
O     0.00000000000000     6.99871007122532     0.00000000000000
O     0.00000000000000     2.33290335707511    -0.00000000000000