CRYSTAL
# Primitive lattice vectors in Angstrom
PRIMVEC
 1.00075168632361 2.83055321473320 1.73335276647273
 1.00075168632361 2.83055321473320 -1.73335276647273
 -2.00150337264723 2.83055321473320 -0.00000000000000
# Cartesian coordinates in Angstrom.
PRIMCOORD
 2 1
Nd     0.00000000000000     0.00000000000000     0.00000000000000
O     0.00000000000000     4.24582982209980     0.00000000000000