CRYSTAL
# Primitive lattice vectors in Angstrom
PRIMVEC
 1.19812732864384 3.38881583523592 2.07521740714790
 1.19812732864384 3.38881583523592 -2.07521740714790
 -2.39625465728767 3.38881583523592 -0.00000000000000
# Cartesian coordinates in Angstrom.
PRIMCOORD
 3 1
Nd     0.00000000000000     7.62483562928082     0.00000000000000
Nd    -0.00000000000000     2.54161187642694    -0.00000000000000
O     0.00000000000000     0.00000000000000     0.00000000000000