CRYSTAL
# Primitive lattice vectors in Angstrom
PRIMVEC
 1.17033286351002 3.31020121613362 2.02707598136693
 1.17033286351002 3.31020121613362 -2.02707598136692
 -2.34066572702004 3.31020121613362 -0.00000000000000
# Cartesian coordinates in Angstrom.
PRIMCOORD
 2 1
Ne     0.00000000000000     0.00000000000000     0.00000000000000
O     0.00000000000000     4.96530182420043     0.00000000000000