CRYSTAL
# Primitive lattice vectors in Angstrom
PRIMVEC
 1.48258445111576 4.19338207626275 2.56791159584411
 1.48258445111576 4.19338207626275 -2.56791159584411
 -2.96516890223151 4.19338207626275 -0.00000000000000
# Cartesian coordinates in Angstrom.
PRIMCOORD
 3 1
Ne     0.00000000000000     9.43510967159118     0.00000000000000
Ne    -0.00000000000000     3.14503655719706     0.00000000000000
O     0.00000000000000     0.00000000000000     0.00000000000000