CRYSTAL
# Primitive lattice vectors in Angstrom
PRIMVEC
 1.09798145178456 3.10556052069564 1.90175966025909
 1.09798145178456 3.10556052069564 -1.90175966025909
 -2.19596290356911 3.10556052069564 -0.00000000000000
# Cartesian coordinates in Angstrom.
PRIMCOORD
 3 1
Ne     0.00000000000000     0.00000000000000     0.00000000000000
O     0.00000000000000     6.98751117156519     0.00000000000000
O     0.00000000000000     2.32917039052173     0.00000000000000