CRYSTAL
# Primitive lattice vectors in Angstrom
PRIMVEC
 1.02484052476365 2.89868673878062 1.77507585854619
 1.02484052476365 2.89868673878062 -1.77507585854619
 -2.04968104952730 2.89868673878062 -0.00000000000000
# Cartesian coordinates in Angstrom.
PRIMCOORD
 3 1
Ni     0.00000000000000     6.52204516225640     0.00000000000000
Ni     0.00000000000000     2.17401505408547     0.00000000000000
O     0.00000000000000     0.00000000000000     0.00000000000000