CRYSTAL
# Primitive lattice vectors in Angstrom
PRIMVEC
 0.84908714090288 2.40158110060289 1.47066206809718
 0.84908714090288 2.40158110060289 -1.47066206809718
 -1.69817428180575 2.40158110060289 -0.00000000000000
# Cartesian coordinates in Angstrom.
PRIMCOORD
 2 1
Ni     0.00000000000000     0.00000000000000     0.00000000000000
O     0.00000000000000     3.60237165090433     0.00000000000000