CRYSTAL
# Primitive lattice vectors in Angstrom
PRIMVEC
 0.96238352044619 2.72203165363874 1.66689715377981
 0.96238352044619 2.72203165363874 -1.66689715377981
 -1.92476704089239 2.72203165363874 -0.00000000000000
# Cartesian coordinates in Angstrom.
PRIMCOORD
 3 1
Ni     0.00000000000000     0.00000000000000     0.00000000000000
O     0.00000000000000     6.12457122068717     0.00000000000000
O    -0.00000000000000     2.04152374022906     0.00000000000000