CRYSTAL
# Primitive lattice vectors in Angstrom
PRIMVEC
 1.09000414167034 3.08299728038607 1.88794255383353
 1.09000414167034 3.08299728038607 -1.88794255383353
 -2.18000828334068 3.08299728038607 -0.00000000000000
# Cartesian coordinates in Angstrom.
PRIMCOORD
 3 1
Np     0.00000000000000     0.00000000000000     0.00000000000000
O     0.00000000000000     6.93674388086866     0.00000000000000
O    -0.00000000000000     2.31224796028955    -0.00000000000000