CRYSTAL
# Primitive lattice vectors in Angstrom
PRIMVEC
 1.17139692389776 3.31321083339667 2.02891898802081
 1.17139692389776 3.31321083339667 -2.02891898802081
 -2.34279384779552 3.31321083339667 -0.00000000000000
# Cartesian coordinates in Angstrom.
PRIMCOORD
 3 1
Np     0.00000000000000     7.45472437514250     0.00000000000000
Np     0.00000000000000     2.48490812504750     0.00000000000000
O     0.00000000000000     0.00000000000000     0.00000000000000