CRYSTAL
# Primitive lattice vectors in Angstrom
PRIMVEC
 0.97604016899275 2.76065848882094 1.69055116292355
 0.97604016899275 2.76065848882094 -1.69055116292355
 -1.95208033798549 2.76065848882094 -0.00000000000000
# Cartesian coordinates in Angstrom.
PRIMCOORD
 2 1
Np     0.00000000000000     0.00000000000000     0.00000000000000
O     0.00000000000000     4.14098773323140     0.00000000000000