CRYSTAL
# Primitive lattice vectors in Angstrom
PRIMVEC
 2.43754682155382 2.43754682155382 2.43754682155382
 2.43754682155382 -2.43754682155382 -2.43754682155382
 -2.43754682155382 2.43754682155382 -2.43754682155382
# Cartesian coordinates in Angstrom.
PRIMCOORD
 7 1
O     0.00000000000000     0.00000000000000     0.00000000000000
O     0.00000000000000     0.00000000000000    -2.43754682155382
O     0.00000000000000     2.43754682155382    -0.00000000000000
O     2.43754682155382     0.00000000000000    -0.00000000000000
O     1.21877341077691     1.21877341077691    -1.21877341077691
O     3.65632023233073     1.21877341077691    -1.21877341077691
O     1.21877341077691     3.65632023233073    -1.21877341077691