CRYSTAL
# Primitive lattice vectors in Angstrom
PRIMVEC
 0.97342587623747 2.75326415227989 1.68602307504555
 0.97342587623747 2.75326415227989 -1.68602307504555
 -1.94685175247494 2.75326415227989 -0.00000000000000
# Cartesian coordinates in Angstrom.
PRIMCOORD
 3 1
O     0.00000000000000     6.19484434262975     0.00000000000000
O    -0.00000000000000     2.06494811420992     0.00000000000000
O     0.00000000000000     0.00000000000000     0.00000000000000