CRYSTAL
# Primitive lattice vectors in Angstrom
PRIMVEC
 0.97342562204166 2.75326343330558 1.68602263476550
 0.97342562204166 2.75326343330558 -1.68602263476550
 -1.94685124408333 2.75326343330558 -0.00000000000000
# Cartesian coordinates in Angstrom.
PRIMCOORD
 3 1
O     0.00000000000000     0.00000000000000     0.00000000000000
O     0.00000000000000     6.19484272493755     0.00000000000000
O     0.00000000000000     2.06494757497918     0.00000000000000