CRYSTAL
# Primitive lattice vectors in Angstrom
PRIMVEC
 1.62979516514982 1.15243921322249 0.00000000000000
 0.81489758257491 -1.15243921322249 1.41144401598480
 0.81489758257491 -1.15243921322249 -1.41144401598480
# Cartesian coordinates in Angstrom.
PRIMCOORD
 1 1
O     0.00000000000000     0.00000000000000     0.00000000000000