CRYSTAL
# Primitive lattice vectors in Angstrom
PRIMVEC
 0.99324296184954 2.80931533475848 1.72034727418360
 0.99324296184954 2.80931533475848 -1.72034727418360
 -1.98648592369908 2.80931533475848 -0.00000000000000
# Cartesian coordinates in Angstrom.
PRIMCOORD
 3 1
Os     0.00000000000000     0.00000000000000     0.00000000000000
O    -0.00000000000000     6.32095950320658     0.00000000000000
O    -0.00000000000000     2.10698650106886     0.00000000000000