CRYSTAL
# Primitive lattice vectors in Angstrom
PRIMVEC
 0.91537403874553 2.58906876047634 1.58547434303679
 0.91537403874553 2.58906876047634 -1.58547434303679
 -1.83074807749107 2.58906876047634 -0.00000000000000
# Cartesian coordinates in Angstrom.
PRIMCOORD
 2 1
Os     0.00000000000000     0.00000000000000     0.00000000000000
O     0.00000000000000     3.88360314071451     0.00000000000000