CRYSTAL
# Primitive lattice vectors in Angstrom
PRIMVEC
 1.10422807629258 3.12322864289222 1.91257913128278
 1.10422807629258 3.12322864289222 -1.91257913128278
 -2.20845615258515 3.12322864289222 -0.00000000000000
# Cartesian coordinates in Angstrom.
PRIMCOORD
 3 1
Os     0.00000000000000     7.02726444650751     0.00000000000000
Os     0.00000000000000     2.34242148216917     0.00000000000000
O     0.00000000000000     0.00000000000000     0.00000000000000