CRYSTAL
# Primitive lattice vectors in Angstrom
PRIMVEC
 1.10828644709254 3.13470744894512 1.91960843570427
 1.10828644709254 3.13470744894512 -1.91960843570427
 -2.21657289418508 3.13470744894512 -0.00000000000000
# Cartesian coordinates in Angstrom.
PRIMCOORD
 3 1
P     0.00000000000000     7.05309176012652     0.00000000000000
P     0.00000000000000     2.35103058670884    -0.00000000000000
O     0.00000000000000     0.00000000000000     0.00000000000000