CRYSTAL
# Primitive lattice vectors in Angstrom
PRIMVEC
 0.93855513956947 2.65463481482825 1.62562518743923
 0.93855513956947 2.65463481482825 -1.62562518743923
 -1.87711027913895 2.65463481482825 -0.00000000000000
# Cartesian coordinates in Angstrom.
PRIMCOORD
 2 1
P     0.00000000000000     0.00000000000000     0.00000000000000
O     0.00000000000000     3.98195222224237     0.00000000000000