CRYSTAL
# Primitive lattice vectors in Angstrom
PRIMVEC
 0.97448200960977 2.75625134855744 1.68785235170594
 0.97448200960977 2.75625134855744 -1.68785235170594
 -1.94896401921953 2.75625134855744 -0.00000000000000
# Cartesian coordinates in Angstrom.
PRIMCOORD
 3 1
P     0.00000000000000     0.00000000000000     0.00000000000000
O     0.00000000000000     6.20156553425424     0.00000000000000
O     0.00000000000000     2.06718851141808    -0.00000000000000