CRYSTAL
# Primitive lattice vectors in Angstrom
PRIMVEC
 1.24182284825922 3.51240542814595 2.15090026718486
 1.24182284825922 3.51240542814595 -2.15090026718486
 -2.48364569651844 3.51240542814595 -0.00000000000000
# Cartesian coordinates in Angstrom.
PRIMCOORD
 3 1
Pa    -0.00000000000000     7.90291221332838     0.00000000000000
Pa    -0.00000000000000     2.63430407110946     0.00000000000000
O     0.00000000000000     0.00000000000000     0.00000000000000