CRYSTAL
# Primitive lattice vectors in Angstrom
PRIMVEC
 1.00781018863194 2.85051767412215 1.74557845109609
 1.00781018863194 2.85051767412215 -1.74557845109609
 -2.01562037726388 2.85051767412215 -0.00000000000000
# Cartesian coordinates in Angstrom.
PRIMCOORD
 2 1
Pa     0.00000000000000     0.00000000000000     0.00000000000000
O     0.00000000000000     4.27577651118323     0.00000000000000