CRYSTAL
# Primitive lattice vectors in Angstrom
PRIMVEC
 1.11411827952128 3.15120236197355 1.92970946577208
 1.11411827952128 3.15120236197355 -1.92970946577208
 -2.22823655904256 3.15120236197355 -0.00000000000000
# Cartesian coordinates in Angstrom.
PRIMCOORD
 3 1
Pa     0.00000000000000     0.00000000000000     0.00000000000000
O    -0.00000000000000     7.09020531444049     0.00000000000000
O    -0.00000000000000     2.36340177148016    -0.00000000000000