CRYSTAL
# Primitive lattice vectors in Angstrom
PRIMVEC
 1.33748215701543 3.78297081176647 2.31658705016753
 1.33748215701543 3.78297081176647 -2.31658705016753
 -2.67496431403085 3.78297081176647 -0.00000000000000
# Cartesian coordinates in Angstrom.
PRIMCOORD
 3 1
Pb     0.00000000000000     8.51168432647457     0.00000000000000
Pb    -0.00000000000000     2.83722810882485     0.00000000000000
O     0.00000000000000     0.00000000000000     0.00000000000000