CRYSTAL
# Primitive lattice vectors in Angstrom
PRIMVEC
 1.10449688159029 3.12398893908755 1.91304471571577
 1.10449688159029 3.12398893908755 -1.91304471571577
 -2.20899376318058 3.12398893908755 -0.00000000000000
# Cartesian coordinates in Angstrom.
PRIMCOORD
 3 1
Pb     0.00000000000000     0.00000000000000     0.00000000000000
O     0.00000000000000     7.02897511294699     0.00000000000000
O    -0.00000000000000     2.34299170431566    -0.00000000000000