CRYSTAL
# Primitive lattice vectors in Angstrom
PRIMVEC
 1.07498657449086 3.04052118602794 1.86193136447260
 1.07498657449086 3.04052118602794 -1.86193136447259
 -2.14997314898172 3.04052118602794 -0.00000000000000
# Cartesian coordinates in Angstrom.
PRIMCOORD
 2 1
Pb     0.00000000000000     0.00000000000000     0.00000000000000
O     0.00000000000000     4.56078177904191     0.00000000000000