CRYSTAL
# Primitive lattice vectors in Angstrom
PRIMVEC
 1.02218018152342 2.89116215179881 1.77046800888853
 1.02218018152342 2.89116215179881 -1.77046800888853
 -2.04436036304683 2.89116215179881 -0.00000000000000
# Cartesian coordinates in Angstrom.
PRIMCOORD
 3 1
Pd     0.00000000000000     0.00000000000000     0.00000000000000
O     0.00000000000000     6.50511484154733     0.00000000000000
O     0.00000000000000     2.16837161384911     0.00000000000000