CRYSTAL
# Primitive lattice vectors in Angstrom
PRIMVEC
 1.12820511728691 3.19104595601174 1.95410858450012
 1.12820511728691 3.19104595601174 -1.95410858450012
 -2.25641023457381 3.19104595601174 -0.00000000000000
# Cartesian coordinates in Angstrom.
PRIMCOORD
 3 1
Pd     0.00000000000000     7.17985340102641     0.00000000000000
Pd    -0.00000000000000     2.39328446700880    -0.00000000000000
O     0.00000000000000     0.00000000000000     0.00000000000000