CRYSTAL
# Primitive lattice vectors in Angstrom
PRIMVEC
 0.92561756654822 2.61804183236654 1.60321665363978
 0.92561756654822 2.61804183236654 -1.60321665363978
 -1.85123513309644 2.61804183236654 -0.00000000000000
# Cartesian coordinates in Angstrom.
PRIMCOORD
 2 1
Pd     0.00000000000000     0.00000000000000     0.00000000000000
O     0.00000000000000     3.92706274854981     0.00000000000000