CRYSTAL
# Primitive lattice vectors in Angstrom
PRIMVEC
 0.99575183254729 2.81641149269247 1.72469276570172
 0.99575183254729 2.81641149269247 -1.72469276570172
 -1.99150366509457 2.81641149269247 -0.00000000000000
# Cartesian coordinates in Angstrom.
PRIMCOORD
 2 1
Pm     0.00000000000000     0.00000000000000     0.00000000000000
O     0.00000000000000     4.22461723903871     0.00000000000000