CRYSTAL
# Primitive lattice vectors in Angstrom
PRIMVEC
 1.19237196947352 3.37253722124595 2.06524883264911
 1.19237196947352 3.37253722124595 -2.06524883264911
 -2.38474393894705 3.37253722124595 -0.00000000000000
# Cartesian coordinates in Angstrom.
PRIMCOORD
 3 1
Pm     0.00000000000000     7.58820874780338     0.00000000000000
Pm     0.00000000000000     2.52940291593446     0.00000000000000
O     0.00000000000000     0.00000000000000     0.00000000000000