CRYSTAL
# Primitive lattice vectors in Angstrom
PRIMVEC
 1.09448335310930 3.09566640351751 1.89570077562366
 1.09448335310930 3.09566640351751 -1.89570077562366
 -2.18896670621860 3.09566640351751 -0.00000000000000
# Cartesian coordinates in Angstrom.
PRIMCOORD
 3 1
Pm     0.00000000000000     0.00000000000000     0.00000000000000
O     0.00000000000000     6.96524940791440     0.00000000000000
O    -0.00000000000000     2.32174980263813     0.00000000000000