CRYSTAL
# Primitive lattice vectors in Angstrom
PRIMVEC
 1.33768003393022 3.78353049219963 2.31692978303760
 1.33768003393022 3.78353049219963 -2.31692978303760
 -2.67536006786043 3.78353049219963 -0.00000000000000
# Cartesian coordinates in Angstrom.
PRIMCOORD
 3 1
Po     0.00000000000000     8.51294360744917     0.00000000000000
Po    -0.00000000000000     2.83764786914972     0.00000000000000
O     0.00000000000000     0.00000000000000     0.00000000000000