CRYSTAL
# Primitive lattice vectors in Angstrom
PRIMVEC
 1.08303320789289 3.06328050220512 1.87586854235479
 1.08303320789289 3.06328050220512 -1.87586854235478
 -2.16606641578577 3.06328050220512 -0.00000000000000
# Cartesian coordinates in Angstrom.
PRIMCOORD
 2 1
Po     0.00000000000000     0.00000000000000     0.00000000000000
O     0.00000000000000     4.59492075330768     0.00000000000000