CRYSTAL
# Primitive lattice vectors in Angstrom
PRIMVEC
 1.12451543017942 3.18060994491510 1.94771785896593
 1.12451543017942 3.18060994491510 -1.94771785896593
 -2.24903086035884 3.18060994491510 -0.00000000000000
# Cartesian coordinates in Angstrom.
PRIMCOORD
 3 1
Po     0.00000000000000     0.00000000000000     0.00000000000000
O     0.00000000000000     7.15637237605898     0.00000000000000
O     0.00000000000000     2.38545745868633    -0.00000000000000