CRYSTAL
# Primitive lattice vectors in Angstrom
PRIMVEC
 1.00768894757807 2.85017475263675 1.74536845543083
 1.00768894757807 2.85017475263675 -1.74536845543083
 -2.01537789515614 2.85017475263675 -0.00000000000000
# Cartesian coordinates in Angstrom.
PRIMCOORD
 2 1
Pr     0.00000000000000     0.00000000000000     0.00000000000000
O     0.00000000000000     4.27526212895513    -0.00000000000000