CRYSTAL
# Primitive lattice vectors in Angstrom
PRIMVEC
 1.10644499188976 3.12949902710058 1.91641894173320
 1.10644499188976 3.12949902710058 -1.91641894173320
 -2.21288998377952 3.12949902710058 -0.00000000000000
# Cartesian coordinates in Angstrom.
PRIMCOORD
 3 1
Pr     0.00000000000000     0.00000000000000     0.00000000000000
O     0.00000000000000     7.04137281097630     0.00000000000000
O     0.00000000000000     2.34712427032543    -0.00000000000000