CRYSTAL
# Primitive lattice vectors in Angstrom
PRIMVEC
 1.21178953948138 3.42745840295283 2.09888105046224
 1.21178953948138 3.42745840295283 -2.09888105046224
 -2.42357907896276 3.42745840295283 -0.00000000000000
# Cartesian coordinates in Angstrom.
PRIMCOORD
 3 1
Pr     0.00000000000000     7.71178140664386     0.00000000000000
Pr     0.00000000000000     2.57059380221462    -0.00000000000000
O     0.00000000000000     0.00000000000000     0.00000000000000