CRYSTAL
# Primitive lattice vectors in Angstrom
PRIMVEC
 1.03182637050214 2.91844569435668 1.78717569829910
 1.03182637050214 2.91844569435668 -1.78717569829910
 -2.06365274100429 2.91844569435668 -0.00000000000000
# Cartesian coordinates in Angstrom.
PRIMCOORD
 3 1
Pt     0.00000000000000     0.00000000000000     0.00000000000000
O     0.00000000000000     6.56650281230252     0.00000000000000
O    -0.00000000000000     2.18883427076751     0.00000000000000