CRYSTAL
# Primitive lattice vectors in Angstrom
PRIMVEC
 1.13712899402537 3.21628649103671 1.96956519241163
 1.13712899402537 3.21628649103671 -1.96956519241163
 -2.27425798805074 3.21628649103671 -0.00000000000000
# Cartesian coordinates in Angstrom.
PRIMCOORD
 3 1
Pt     0.00000000000000     7.23664460483259     0.00000000000000
Pt     0.00000000000000     2.41221486827753    -0.00000000000000
O     0.00000000000000     0.00000000000000     0.00000000000000