CRYSTAL
# Primitive lattice vectors in Angstrom
PRIMVEC
 0.94301532331211 2.66725011950728 1.63335045229257
 0.94301532331211 2.66725011950728 -1.63335045229257
 -1.88603064662423 2.66725011950728 -0.00000000000000
# Cartesian coordinates in Angstrom.
PRIMCOORD
 2 1
Pt     0.00000000000000     0.00000000000000     0.00000000000000
O     0.00000000000000     4.00087517926092     0.00000000000000