CRYSTAL
# Primitive lattice vectors in Angstrom
PRIMVEC
 0.97017593563382 2.74407193212271 1.68039401279845
 0.97017593563382 2.74407193212271 -1.68039401279845
 -1.94035187126764 2.74407193212271 -0.00000000000000
# Cartesian coordinates in Angstrom.
PRIMCOORD
 2 1
Pu     0.00000000000000     0.00000000000000     0.00000000000000
O     0.00000000000000     4.11610789818406     0.00000000000000