CRYSTAL
# Primitive lattice vectors in Angstrom
PRIMVEC
 1.08363620506342 3.06498603575841 1.87691296409098
 1.08363620506342 3.06498603575841 -1.87691296409098
 -2.16727241012685 3.06498603575841 -0.00000000000000
# Cartesian coordinates in Angstrom.
PRIMCOORD
 3 1
Pu     0.00000000000000     0.00000000000000     0.00000000000000
O     0.00000000000000     6.89621858045643     0.00000000000000
O    -0.00000000000000     2.29873952681881    -0.00000000000000