CRYSTAL
# Primitive lattice vectors in Angstrom
PRIMVEC
 1.15977005756978 3.28032508929882 2.00878066480795
 1.15977005756978 3.28032508929882 -2.00878066480794
 -2.31954011513956 3.28032508929882 -0.00000000000000
# Cartesian coordinates in Angstrom.
PRIMCOORD
 3 1
Pu     0.00000000000000     7.38073145092235     0.00000000000000
Pu     0.00000000000000     2.46024381697412    -0.00000000000000
O     0.00000000000000     0.00000000000000     0.00000000000000