CRYSTAL
# Primitive lattice vectors in Angstrom
PRIMVEC
 1.17629723273323 3.32707099982655 2.03740657189663
 1.17629723273323 3.32707099982655 -2.03740657189663
 -2.35259446546646 3.32707099982655 -0.00000000000000
# Cartesian coordinates in Angstrom.
PRIMCOORD
 2 1
Ra     0.00000000000000     0.00000000000000     0.00000000000000
O     0.00000000000000     4.99060649973983     0.00000000000000