CRYSTAL
# Primitive lattice vectors in Angstrom
PRIMVEC
 1.47226169559027 4.16418491453234 2.55003205879986
 1.47226169559027 4.16418491453234 -2.55003205879986
 -2.94452339118054 4.16418491453234 -0.00000000000000
# Cartesian coordinates in Angstrom.
PRIMCOORD
 3 1
Ra     0.00000000000000     9.36941605769777     0.00000000000000
Ra    -0.00000000000000     3.12313868589926     0.00000000000000
O     0.00000000000000     0.00000000000000     0.00000000000000