CRYSTAL
# Primitive lattice vectors in Angstrom
PRIMVEC
 1.29509417390969 3.66307949058692 2.24316890979802
 1.29509417390969 3.66307949058692 -2.24316890979802
 -2.59018834781938 3.66307949058692 -0.00000000000000
# Cartesian coordinates in Angstrom.
PRIMCOORD
 3 1
Ra     0.00000000000000     0.00000000000000     0.00000000000000
O     0.00000000000000     8.24192885382057     0.00000000000000
O    -0.00000000000000     2.74730961794019     0.00000000000000