CRYSTAL
# Primitive lattice vectors in Angstrom
PRIMVEC
 1.40241356878266 3.96662457805697 2.42905155435555
 1.40241356878266 3.96662457805697 -2.42905155435555
 -2.80482713756531 3.96662457805697 -0.00000000000000
# Cartesian coordinates in Angstrom.
PRIMCOORD
 3 1
Rb     0.00000000000000     8.92490530062819     0.00000000000000
Rb     0.00000000000000     2.97496843354273     0.00000000000000
O     0.00000000000000     0.00000000000000     0.00000000000000