CRYSTAL
# Primitive lattice vectors in Angstrom
PRIMVEC
 1.18395780370929 3.34873836656629 2.05067507004216
 1.18395780370929 3.34873836656629 -2.05067507004216
 -2.36791560741859 3.34873836656629 -0.00000000000000
# Cartesian coordinates in Angstrom.
PRIMCOORD
 2 1
Rb     0.00000000000000     0.00000000000000     0.00000000000000
O     0.00000000000000     5.02310754984944    -0.00000000000000