CRYSTAL
# Primitive lattice vectors in Angstrom
PRIMVEC
 1.32946885352858 3.76030576682547 2.30270760139185
 1.32946885352858 3.76030576682547 -2.30270760139185
 -2.65893770705717 3.76030576682547 -0.00000000000000
# Cartesian coordinates in Angstrom.
PRIMCOORD
 3 1
Rb     0.00000000000000     0.00000000000000     0.00000000000000
O     0.00000000000000     8.46068797535730     0.00000000000000
O    -0.00000000000000     2.82022932511910     0.00000000000000