CRYSTAL
# Primitive lattice vectors in Angstrom
PRIMVEC
 1.10995189482752 3.13941804649357 1.92249307579860
 1.10995189482752 3.13941804649357 -1.92249307579860
 -2.21990378965503 3.13941804649357 -0.00000000000000
# Cartesian coordinates in Angstrom.
PRIMCOORD
 3 1
Re     0.00000000000000     7.06369060461054     0.00000000000000
Re     0.00000000000000     2.35456353487018    -0.00000000000000
O     0.00000000000000     0.00000000000000     0.00000000000000