CRYSTAL
# Primitive lattice vectors in Angstrom
PRIMVEC
 0.90948128600809 2.57240153879433 1.57526779589910
 0.90948128600809 2.57240153879433 -1.57526779589910
 -1.81896257201618 2.57240153879433 -0.00000000000000
# Cartesian coordinates in Angstrom.
PRIMCOORD
 2 1
Re     0.00000000000000     0.00000000000000     0.00000000000000
O     0.00000000000000     3.85860230819150     0.00000000000000