CRYSTAL
# Primitive lattice vectors in Angstrom
PRIMVEC
 0.99898087040724 2.82554459096240 1.73028562333472
 0.99898087040724 2.82554459096240 -1.73028562333472
 -1.99796174081448 2.82554459096240 -0.00000000000000
# Cartesian coordinates in Angstrom.
PRIMCOORD
 3 1
Re     0.00000000000000     0.00000000000000     0.00000000000000
O     0.00000000000000     6.35747532966539     0.00000000000000
O     0.00000000000000     2.11915844322180    -0.00000000000000