CRYSTAL
# Primitive lattice vectors in Angstrom
PRIMVEC
 0.90803678178320 2.56831586386285 1.57276584118984
 0.90803678178320 2.56831586386285 -1.57276584118984
 -1.81607356356641 2.56831586386285 -0.00000000000000
# Cartesian coordinates in Angstrom.
PRIMCOORD
 2 1
Rh     0.00000000000000     0.00000000000000     0.00000000000000
O     0.00000000000000     3.85247379579428    -0.00000000000000