CRYSTAL
# Primitive lattice vectors in Angstrom
PRIMVEC
 1.00225378336935 2.83480178676137 1.73595447487385
 1.00225378336935 2.83480178676137 -1.73595447487385
 -2.00450756673871 2.83480178676137 -0.00000000000000
# Cartesian coordinates in Angstrom.
PRIMCOORD
 3 1
Rh     0.00000000000000     0.00000000000000     0.00000000000000
O     0.00000000000000     6.37830402021308     0.00000000000000
O    -0.00000000000000     2.12610134007103    -0.00000000000000