CRYSTAL
# Primitive lattice vectors in Angstrom
PRIMVEC
 1.09754595604662 3.10432875273776 1.90100535951451
 1.09754595604662 3.10432875273776 -1.90100535951451
 -2.19509191209325 3.10432875273776 -0.00000000000000
# Cartesian coordinates in Angstrom.
PRIMCOORD
 3 1
Rh     0.00000000000000     6.98473969365995     0.00000000000000
Rh    -0.00000000000000     2.32824656455332    -0.00000000000000
O     0.00000000000000     0.00000000000000     0.00000000000000