CRYSTAL
# Primitive lattice vectors in Angstrom
PRIMVEC
 1.17380466986317 3.32002096739473 2.03308932636462
 1.17380466986317 3.32002096739473 -2.03308932636462
 -2.34760933972633 3.32002096739473 -0.00000000000000
# Cartesian coordinates in Angstrom.
PRIMCOORD
 2 1
Rn     0.00000000000000     0.00000000000000     0.00000000000000
O     0.00000000000000     4.98003145109209    -0.00000000000000