CRYSTAL
# Primitive lattice vectors in Angstrom
PRIMVEC
 1.18316209718272 3.34648776864320 2.04929686591022
 1.18316209718272 3.34648776864320 -2.04929686591022
 -2.36632419436545 3.34648776864320 -0.00000000000000
# Cartesian coordinates in Angstrom.
PRIMCOORD
 3 1
Rn     0.00000000000000     0.00000000000000     0.00000000000000
O     0.00000000000000     7.52959747944721     0.00000000000000
O     0.00000000000000     2.50986582648240    -0.00000000000000