CRYSTAL
# Primitive lattice vectors in Angstrom
PRIMVEC
 1.66908764925761 4.72089278073907 2.89094461079988
 1.66908764925761 4.72089278073907 -2.89094461079988
 -3.33817529851521 4.72089278073907 -0.00000000000000
# Cartesian coordinates in Angstrom.
PRIMCOORD
 3 1
Rn     0.00000000000000    10.62200875666291     0.00000000000000
Rn     0.00000000000000     3.54066958555430     0.00000000000000
O     0.00000000000000     0.00000000000000     0.00000000000000