CRYSTAL
# Primitive lattice vectors in Angstrom
PRIMVEC
 1.08824958149288 3.07803463478815 1.88490356646124
 1.08824958149288 3.07803463478815 -1.88490356646123
 -2.17649916298576 3.07803463478815 -0.00000000000000
# Cartesian coordinates in Angstrom.
PRIMCOORD
 3 1
Ru     0.00000000000000     6.92557792827334     0.00000000000000
Ru     0.00000000000000     2.30852597609111    -0.00000000000000
O     0.00000000000000     0.00000000000000     0.00000000000000