CRYSTAL
# Primitive lattice vectors in Angstrom
PRIMVEC
 0.89969606382802 2.54472475095856 1.55831929391987
 0.89969606382802 2.54472475095856 -1.55831929391987
 -1.79939212765605 2.54472475095856 -0.00000000000000
# Cartesian coordinates in Angstrom.
PRIMCOORD
 2 1
Ru     0.00000000000000     0.00000000000000     0.00000000000000
O    -0.00000000000000     3.81708712643784     0.00000000000000