CRYSTAL
# Primitive lattice vectors in Angstrom
PRIMVEC
 0.98619003039026 2.78936663211008 1.70813123855382
 0.98619003039026 2.78936663211008 -1.70813123855382
 -1.97238006078052 2.78936663211008 -0.00000000000000
# Cartesian coordinates in Angstrom.
PRIMCOORD
 3 1
Ru     0.00000000000000     0.00000000000000     0.00000000000000
O     0.00000000000000     6.27607492224767     0.00000000000000
O    -0.00000000000000     2.09202497408256     0.00000000000000