CRYSTAL
# Primitive lattice vectors in Angstrom
PRIMVEC
 1.13247562905302 3.20312478732758 1.96150532785336
 1.13247562905302 3.20312478732758 -1.96150532785336
 -2.26495125810605 3.20312478732758 -0.00000000000000
# Cartesian coordinates in Angstrom.
PRIMCOORD
 3 1
S     0.00000000000000     7.20703077148705     0.00000000000000
S    -0.00000000000000     2.40234359049568    -0.00000000000000
O     0.00000000000000     0.00000000000000     0.00000000000000