CRYSTAL
# Primitive lattice vectors in Angstrom
PRIMVEC
 1.00390259230374 2.83946532267492 1.73881029572019
 1.00390259230374 2.83946532267492 -1.73881029572019
 -2.00780518460749 2.83946532267492 -0.00000000000000
# Cartesian coordinates in Angstrom.
PRIMCOORD
 3 1
S     0.00000000000000     0.00000000000000     0.00000000000000
O     0.00000000000000     6.38879697601857     0.00000000000000
O    -0.00000000000000     2.12959899200619     0.00000000000000