CRYSTAL
# Primitive lattice vectors in Angstrom
PRIMVEC
 0.94346181650181 2.66851299295604 1.63412380118236
 0.94346181650181 2.66851299295604 -1.63412380118236
 -1.88692363300362 2.66851299295604 -0.00000000000000
# Cartesian coordinates in Angstrom.
PRIMCOORD
 2 1
S     0.00000000000000     0.00000000000000     0.00000000000000
O     0.00000000000000     4.00276948943406     0.00000000000000