CRYSTAL
# Primitive lattice vectors in Angstrom
PRIMVEC
 1.27947985242699 3.61891552017076 2.21612411166428
 1.27947985242699 3.61891552017076 -2.21612411166428
 -2.55895970485398 3.61891552017076 -0.00000000000000
# Cartesian coordinates in Angstrom.
PRIMCOORD
 3 1
Sb     0.00000000000000     8.14255992038420     0.00000000000000
Sb     0.00000000000000     2.71418664012807    -0.00000000000000
O     0.00000000000000     0.00000000000000     0.00000000000000