CRYSTAL
# Primitive lattice vectors in Angstrom
PRIMVEC
 1.04584265055286 2.95808972104017 1.81145260748006
 1.04584265055286 2.95808972104017 -1.81145260748006
 -2.09168530110572 2.95808972104017 -0.00000000000000
# Cartesian coordinates in Angstrom.
PRIMCOORD
 2 1
Sb     0.00000000000000     0.00000000000000     0.00000000000000
O     0.00000000000000     4.43713458156025     0.00000000000000