CRYSTAL
# Primitive lattice vectors in Angstrom
PRIMVEC
 1.08521937566508 3.06946391843125 1.87965509601010
 1.08521937566508 3.06946391843125 -1.87965509601010
 -2.17043875133017 3.06946391843125 -0.00000000000000
# Cartesian coordinates in Angstrom.
PRIMCOORD
 3 1
Sb     0.00000000000000     0.00000000000000     0.00000000000000
O     0.00000000000000     6.90629381647031     0.00000000000000
O     0.00000000000000     2.30209793882344     0.00000000000000