CRYSTAL
# Primitive lattice vectors in Angstrom
PRIMVEC
 0.91247642256805 2.58087306428283 1.58045552459655
 0.91247642256805 2.58087306428283 -1.58045552459654
 -1.82495284513609 2.58087306428283 -0.00000000000000
# Cartesian coordinates in Angstrom.
PRIMCOORD
 2 1
Sc     0.00000000000000     0.00000000000000     0.00000000000000
O     0.00000000000000     3.87130959642424     0.00000000000000