CRYSTAL
# Primitive lattice vectors in Angstrom
PRIMVEC
 1.03919763284737 2.93929477271754 1.79994309919695
 1.03919763284737 2.93929477271754 -1.79994309919695
 -2.07839526569474 2.93929477271754 -0.00000000000000
# Cartesian coordinates in Angstrom.
PRIMCOORD
 3 1
Sc     0.00000000000000     0.00000000000000     0.00000000000000
O     0.00000000000000     6.61341323861446     0.00000000000000
O     0.00000000000000     2.20447107953815    -0.00000000000000