CRYSTAL
# Primitive lattice vectors in Angstrom
PRIMVEC
 1.13623789806842 3.21376609106133 1.96802176893978
 1.13623789806842 3.21376609106133 -1.96802176893978
 -2.27247579613685 3.21376609106133 -0.00000000000000
# Cartesian coordinates in Angstrom.
PRIMCOORD
 3 1
Sc     0.00000000000000     7.23097370488798     0.00000000000000
Sc     0.00000000000000     2.41032456829600     0.00000000000000
O     0.00000000000000     0.00000000000000     0.00000000000000