CRYSTAL
# Primitive lattice vectors in Angstrom
PRIMVEC
 1.19306783039261 3.37450541314454 2.06645409911597
 1.19306783039261 3.37450541314454 -2.06645409911596
 -2.38613566078522 3.37450541314454 -0.00000000000000
# Cartesian coordinates in Angstrom.
PRIMCOORD
 3 1
Se     0.00000000000000     7.59263717957521     0.00000000000000
Se    -0.00000000000000     2.53087905985841    -0.00000000000000
O     0.00000000000000     0.00000000000000     0.00000000000000