CRYSTAL
# Primitive lattice vectors in Angstrom
PRIMVEC
 0.98804764184568 2.79462075073784 1.71134871597534
 0.98804764184568 2.79462075073784 -1.71134871597534
 -1.97609528369136 2.79462075073784 -0.00000000000000
# Cartesian coordinates in Angstrom.
PRIMCOORD
 2 1
Se     0.00000000000000     0.00000000000000     0.00000000000000
O     0.00000000000000     4.19193112610675     0.00000000000000