CRYSTAL
# Primitive lattice vectors in Angstrom
PRIMVEC
 1.04010923711006 2.94187317894116 1.80152204409633
 1.04010923711006 2.94187317894116 -1.80152204409633
 -2.08021847422012 2.94187317894116 -0.00000000000000
# Cartesian coordinates in Angstrom.
PRIMCOORD
 3 1
Se     0.00000000000000     0.00000000000000     0.00000000000000
O     0.00000000000000     6.61921465261760     0.00000000000000
O     0.00000000000000     2.20640488420587     0.00000000000000