CRYSTAL
# Primitive lattice vectors in Angstrom
PRIMVEC
 0.93534733401059 2.64556177057459 1.62006910523044
 0.93534733401059 2.64556177057459 -1.62006910523044
 -1.87069466802118 2.64556177057459 -0.00000000000000
# Cartesian coordinates in Angstrom.
PRIMCOORD
 3 1
Si     0.00000000000000     0.00000000000000     0.00000000000000
O     0.00000000000000     5.95251398379283     0.00000000000000
O    -0.00000000000000     1.98417132793094     0.00000000000000