CRYSTAL
# Primitive lattice vectors in Angstrom
PRIMVEC
 0.94231195436192 2.66526069168984 1.63213218153437
 0.94231195436192 2.66526069168984 -1.63213218153436
 -1.88462390872383 2.66526069168984 -0.00000000000000
# Cartesian coordinates in Angstrom.
PRIMCOORD
 2 1
Si     0.00000000000000     0.00000000000000     0.00000000000000
O     0.00000000000000     3.99789103753476    -0.00000000000000