CRYSTAL
# Primitive lattice vectors in Angstrom
PRIMVEC
 1.13246288424686 3.20308873957212 1.96148325320155
 1.13246288424686 3.20308873957212 -1.96148325320155
 -2.26492576849372 3.20308873957212 -0.00000000000000
# Cartesian coordinates in Angstrom.
PRIMCOORD
 3 1
Si     0.00000000000000     7.20694966403728     0.00000000000000
Si     0.00000000000000     2.40231655467909    -0.00000000000000
O     0.00000000000000     0.00000000000000     0.00000000000000