CRYSTAL
# Primitive lattice vectors in Angstrom
PRIMVEC
 1.19153314815310 3.37016467627044 2.06379595150366
 1.19153314815310 3.37016467627044 -2.06379595150366
 -2.38306629630620 3.37016467627044 -0.00000000000000
# Cartesian coordinates in Angstrom.
PRIMCOORD
 3 1
Sm     0.00000000000000     7.58287052160850     0.00000000000000
Sm    -0.00000000000000     2.52762350720283     0.00000000000000
O     0.00000000000000     0.00000000000000     0.00000000000000