CRYSTAL
# Primitive lattice vectors in Angstrom
PRIMVEC
 1.09012708451668 3.08334501526746 1.88815549708982
 1.09012708451668 3.08334501526746 -1.88815549708982
 -2.18025416903336 3.08334501526746 -0.00000000000000
# Cartesian coordinates in Angstrom.
PRIMCOORD
 3 1
Sm     0.00000000000000     0.00000000000000     0.00000000000000
O     0.00000000000000     6.93752628435179     0.00000000000000
O     0.00000000000000     2.31250876145060    -0.00000000000000