CRYSTAL
# Primitive lattice vectors in Angstrom
PRIMVEC
 0.99221282259530 2.80640166094953 1.71856302065639
 0.99221282259530 2.80640166094953 -1.71856302065639
 -1.98442564519061 2.80640166094953 -0.00000000000000
# Cartesian coordinates in Angstrom.
PRIMCOORD
 2 1
Sm     0.00000000000000     0.00000000000000     0.00000000000000
O     0.00000000000000     4.20960249142430     0.00000000000000