CRYSTAL
# Primitive lattice vectors in Angstrom
PRIMVEC
 1.29241138893978 3.65549142880818 2.23852218992437
 1.29241138893978 3.65549142880818 -2.23852218992437
 -2.58482277787957 3.65549142880818 -0.00000000000000
# Cartesian coordinates in Angstrom.
PRIMCOORD
 3 1
Sn     0.00000000000000     8.22485571481841     0.00000000000000
Sn     0.00000000000000     2.74161857160614     0.00000000000000
O     0.00000000000000     0.00000000000000     0.00000000000000