CRYSTAL
# Primitive lattice vectors in Angstrom
PRIMVEC
 1.04978714468922 2.96924643524884 1.81828467173439
 1.04978714468922 2.96924643524884 -1.81828467173438
 -2.09957428937844 2.96924643524884 -0.00000000000000
# Cartesian coordinates in Angstrom.
PRIMCOORD
 3 1
Sn     0.00000000000000     0.00000000000000     0.00000000000000
O     0.00000000000000     6.68080447930988     0.00000000000000
O    -0.00000000000000     2.22693482643663    -0.00000000000000