CRYSTAL
# Primitive lattice vectors in Angstrom
PRIMVEC
 1.04477828285213 2.95507923456471 1.80960906854445
 1.04477828285213 2.95507923456471 -1.80960906854445
 -2.08955656570426 2.95507923456471 -0.00000000000000
# Cartesian coordinates in Angstrom.
PRIMCOORD
 2 1
Sn     0.00000000000000     0.00000000000000     0.00000000000000
O     0.00000000000000     4.43261885184706     0.00000000000000