CRYSTAL
# Primitive lattice vectors in Angstrom
PRIMVEC
 1.06047696045384 2.99948180011602 1.83679997576226
 1.06047696045384 2.99948180011602 -1.83679997576226
 -2.12095392090767 2.99948180011602 -0.00000000000000
# Cartesian coordinates in Angstrom.
PRIMCOORD
 2 1
Sr     0.00000000000000     0.00000000000000     0.00000000000000
O     0.00000000000000     4.49922270017404     0.00000000000000