CRYSTAL
# Primitive lattice vectors in Angstrom
PRIMVEC
 1.33639294898453 3.77989006622740 2.31470048651801
 1.33639294898453 3.77989006622740 -2.31470048651801
 -2.67278589796906 3.77989006622740 -0.00000000000000
# Cartesian coordinates in Angstrom.
PRIMCOORD
 3 1
Sr     0.00000000000000     8.50475264901165     0.00000000000000
Sr     0.00000000000000     2.83491754967055     0.00000000000000
O     0.00000000000000     0.00000000000000     0.00000000000000