CRYSTAL
# Primitive lattice vectors in Angstrom
PRIMVEC
 1.20390986451187 3.40517131653489 2.08523305306793
 1.20390986451187 3.40517131653489 -2.08523305306793
 -2.40781972902375 3.40517131653489 -0.00000000000000
# Cartesian coordinates in Angstrom.
PRIMCOORD
 3 1
Sr     0.00000000000000     0.00000000000000     0.00000000000000
O    -0.00000000000000     7.66163546220351     0.00000000000000
O    -0.00000000000000     2.55387848740117    -0.00000000000000