CRYSTAL
# Primitive lattice vectors in Angstrom
PRIMVEC
 0.91960457961574 2.60103453702598 1.59280185476748
 0.91960457961574 2.60103453702598 -1.59280185476748
 -1.83920915923148 2.60103453702598 -0.00000000000000
# Cartesian coordinates in Angstrom.
PRIMCOORD
 2 1
Ta     0.00000000000000     0.00000000000000     0.00000000000000
O     0.00000000000000     3.90155180553897     0.00000000000000