CRYSTAL
# Primitive lattice vectors in Angstrom
PRIMVEC
 1.15272450315002 3.26039725206909 1.99657740658543
 1.15272450315002 3.26039725206909 -1.99657740658542
 -2.30544900630004 3.26039725206909 -0.00000000000000
# Cartesian coordinates in Angstrom.
PRIMCOORD
 3 1
Ta     0.00000000000000     7.33589381715546     0.00000000000000
Ta     0.00000000000000     2.44529793905182     0.00000000000000
O     0.00000000000000     0.00000000000000     0.00000000000000