CRYSTAL
# Primitive lattice vectors in Angstrom
PRIMVEC
 1.02223437778015 2.89131544196142 1.77056187955878
 1.02223437778015 2.89131544196142 -1.77056187955878
 -2.04446875556030 2.89131544196142 -0.00000000000000
# Cartesian coordinates in Angstrom.
PRIMCOORD
 3 1
Ta     0.00000000000000     0.00000000000000     0.00000000000000
O     0.00000000000000     6.50545974441320     0.00000000000000
O     0.00000000000000     2.16848658147107    -0.00000000000000