CRYSTAL
# Primitive lattice vectors in Angstrom
PRIMVEC
 0.98695268873436 2.79152375565746 1.70945220155463
 0.98695268873436 2.79152375565746 -1.70945220155463
 -1.97390537746873 2.79152375565746 -0.00000000000000
# Cartesian coordinates in Angstrom.
PRIMCOORD
 2 1
Tb     0.00000000000000     0.00000000000000     0.00000000000000
O     0.00000000000000     4.18728563348619     0.00000000000000