CRYSTAL
# Primitive lattice vectors in Angstrom
PRIMVEC
 1.08070900925477 3.05670667573377 1.87184291222668
 1.08070900925477 3.05670667573377 -1.87184291222668
 -2.16141801850954 3.05670667573377 -0.00000000000000
# Cartesian coordinates in Angstrom.
PRIMCOORD
 3 1
Tb     0.00000000000000     0.00000000000000     0.00000000000000
O     0.00000000000000     6.87759002040098     0.00000000000000
O     0.00000000000000     2.29253000680033     0.00000000000000