CRYSTAL
# Primitive lattice vectors in Angstrom
PRIMVEC
 1.20187387829509 3.39941267789372 2.08170662149694
 1.20187387829509 3.39941267789372 -2.08170662149694
 -2.40374775659017 3.39941267789372 -0.00000000000000
# Cartesian coordinates in Angstrom.
PRIMCOORD
 3 1
Tb     0.00000000000000     7.64867852526087     0.00000000000000
Tb     0.00000000000000     2.54955950842029     0.00000000000000
O     0.00000000000000     0.00000000000000     0.00000000000000