CRYSTAL
# Primitive lattice vectors in Angstrom
PRIMVEC
 0.89697559694332 2.53703010862989 1.55360730705525
 0.89697559694332 2.53703010862989 -1.55360730705525
 -1.79395119388664 2.53703010862989 -0.00000000000000
# Cartesian coordinates in Angstrom.
PRIMCOORD
 2 1
Tc     0.00000000000000     0.00000000000000     0.00000000000000
O    -0.00000000000000     3.80554516294483     0.00000000000000