CRYSTAL
# Primitive lattice vectors in Angstrom
PRIMVEC
 1.09282554900362 3.09097742541749 1.89282937468362
 1.09282554900362 3.09097742541749 -1.89282937468362
 -2.18565109800724 3.09097742541749 -0.00000000000000
# Cartesian coordinates in Angstrom.
PRIMCOORD
 3 1
Tc     0.00000000000000     6.95469920718935     0.00000000000000
Tc     0.00000000000000     2.31823306906312    -0.00000000000000
O     0.00000000000000     0.00000000000000     0.00000000000000