CRYSTAL
# Primitive lattice vectors in Angstrom
PRIMVEC
 0.99230289968249 2.80665643742624 1.71871903874799
 0.99230289968249 2.80665643742624 -1.71871903874799
 -1.98460579936497 2.80665643742624 -0.00000000000000
# Cartesian coordinates in Angstrom.
PRIMCOORD
 3 1
Tc     0.00000000000000     0.00000000000000     0.00000000000000
O     0.00000000000000     6.31497698420905     0.00000000000000
O    -0.00000000000000     2.10499232806968     0.00000000000000