CRYSTAL
# Primitive lattice vectors in Angstrom
PRIMVEC
 1.05881829084322 2.99479037399837 1.83392707572370
 1.05881829084322 2.99479037399837 -1.83392707572370
 -2.11763658168644 2.99479037399837 -0.00000000000000
# Cartesian coordinates in Angstrom.
PRIMCOORD
 2 1
Te     0.00000000000000     0.00000000000000     0.00000000000000
O     0.00000000000000     4.49218556099756     0.00000000000000