CRYSTAL
# Primitive lattice vectors in Angstrom
PRIMVEC
 1.09941922545096 3.10962715873293 1.90424995729908
 1.09941922545096 3.10962715873293 -1.90424995729908
 -2.19883845090191 3.10962715873293 -0.00000000000000
# Cartesian coordinates in Angstrom.
PRIMCOORD
 3 1
Te     0.00000000000000     0.00000000000000     0.00000000000000
O     0.00000000000000     6.99666110714910     0.00000000000000
O     0.00000000000000     2.33222036904970    -0.00000000000000