CRYSTAL
# Primitive lattice vectors in Angstrom
PRIMVEC
 1.28859645848276 3.64470117602452 2.23191453654546
 1.28859645848276 3.64470117602452 -2.23191453654546
 -2.57719291696552 3.64470117602452 -0.00000000000000
# Cartesian coordinates in Angstrom.
PRIMCOORD
 3 1
Te     0.00000000000000     8.20057764605516     0.00000000000000
Te    -0.00000000000000     2.73352588201839     0.00000000000000
O     0.00000000000000     0.00000000000000     0.00000000000000