CRYSTAL
# Primitive lattice vectors in Angstrom
PRIMVEC
 1.32768237418936 3.75525284020460 2.29961332840964
 1.32768237418936 3.75525284020460 -2.29961332840964
 -2.65536474837871 3.75525284020460 -0.00000000000000
# Cartesian coordinates in Angstrom.
PRIMCOORD
 3 1
Th     0.00000000000000     8.44931889046034     0.00000000000000
Th     0.00000000000000     2.81643963015345     0.00000000000000
O     0.00000000000000     0.00000000000000     0.00000000000000