CRYSTAL
# Primitive lattice vectors in Angstrom
PRIMVEC
 1.04081772800758 2.94387709381334 1.80274918632754
 1.04081772800758 2.94387709381334 -1.80274918632753
 -2.08163545601516 2.94387709381334 -0.00000000000000
# Cartesian coordinates in Angstrom.
PRIMCOORD
 2 1
Th     0.00000000000000     0.00000000000000     0.00000000000000
O     0.00000000000000     4.41581564072002    -0.00000000000000