CRYSTAL
# Primitive lattice vectors in Angstrom
PRIMVEC
 1.14670122520197 3.24336084934095 1.98614478315130
 1.14670122520197 3.24336084934095 -1.98614478315130
 -2.29340245040394 3.24336084934095 -0.00000000000000
# Cartesian coordinates in Angstrom.
PRIMCOORD
 3 1
Th     0.00000000000000     0.00000000000000     0.00000000000000
O     0.00000000000000     7.29756191101713     0.00000000000000
O     0.00000000000000     2.43252063700571    -0.00000000000000