CRYSTAL
# Primitive lattice vectors in Angstrom
PRIMVEC
 1.07303747919345 3.03500831202002 1.85855543238869
 1.07303747919345 3.03500831202002 -1.85855543238868
 -2.14607495838690 3.03500831202002 -0.00000000000000
# Cartesian coordinates in Angstrom.
PRIMCOORD
 3 1
Ti     0.00000000000000     6.82876870204506     0.00000000000000
Ti     0.00000000000000     2.27625623401502    -0.00000000000000
O     0.00000000000000     0.00000000000000     0.00000000000000