CRYSTAL
# Primitive lattice vectors in Angstrom
PRIMVEC
 0.87388545143896 2.47172131477103 1.51361400188755
 0.87388545143896 2.47172131477103 -1.51361400188755
 -1.74777090287792 2.47172131477103 -0.00000000000000
# Cartesian coordinates in Angstrom.
PRIMCOORD
 2 1
Ti     0.00000000000000     0.00000000000000     0.00000000000000
O     0.00000000000000     3.70758197215655     0.00000000000000