CRYSTAL
# Primitive lattice vectors in Angstrom
PRIMVEC
 0.98602994501509 2.78891384229268 1.70785396255049
 0.98602994501509 2.78891384229268 -1.70785396255049
 -1.97205989003019 2.78891384229268 -0.00000000000000
# Cartesian coordinates in Angstrom.
PRIMCOORD
 3 1
Ti     0.00000000000000     0.00000000000000     0.00000000000000
O     0.00000000000000     6.27505614515854     0.00000000000000
O    -0.00000000000000     2.09168538171951     0.00000000000000