CRYSTAL
# Primitive lattice vectors in Angstrom
PRIMVEC
 1.04934189499629 2.96798707894006 1.81751347664417
 1.04934189499629 2.96798707894006 -1.81751347664417
 -2.09868378999257 2.96798707894006 -0.00000000000000
# Cartesian coordinates in Angstrom.
PRIMCOORD
 2 1
Tl     0.00000000000000     0.00000000000000     0.00000000000000
O    -0.00000000000000     4.45198061841010     0.00000000000000