CRYSTAL
# Primitive lattice vectors in Angstrom
PRIMVEC
 1.34952224012090 3.81702530940621 2.33744108583357
 1.34952224012090 3.81702530940621 -2.33744108583357
 -2.69904448024181 3.81702530940621 -0.00000000000000
# Cartesian coordinates in Angstrom.
PRIMCOORD
 3 1
Tl     0.00000000000000     8.58830694616397     0.00000000000000
Tl     0.00000000000000     2.86276898205466     0.00000000000000
O     0.00000000000000     0.00000000000000     0.00000000000000