CRYSTAL
# Primitive lattice vectors in Angstrom
PRIMVEC
 1.11485025711252 3.15327270724730 1.93097728815010
 1.11485025711252 3.15327270724730 -1.93097728815010
 -2.22970051422503 3.15327270724730 -0.00000000000000
# Cartesian coordinates in Angstrom.
PRIMCOORD
 3 1
Tl     0.00000000000000     0.00000000000000     0.00000000000000
O     0.00000000000000     7.09486359130643     0.00000000000000
O     0.00000000000000     2.36495453043548    -0.00000000000000