CRYSTAL
# Primitive lattice vectors in Angstrom
PRIMVEC
 0.98362116731973 2.78210079012164 1.70368183719799
 0.98362116731973 2.78210079012164 -1.70368183719799
 -1.96724233463947 2.78210079012164 -0.00000000000000
# Cartesian coordinates in Angstrom.
PRIMCOORD
 2 1
Tm     0.00000000000000     0.00000000000000     0.00000000000000
O     0.00000000000000     4.17315118518246     0.00000000000000