CRYSTAL
# Primitive lattice vectors in Angstrom
PRIMVEC
 1.23333552509963 3.48839965310488 2.13619979225220
 1.23333552509963 3.48839965310488 -2.13619979225220
 -2.46667105019926 3.48839965310488 -0.00000000000000
# Cartesian coordinates in Angstrom.
PRIMCOORD
 3 1
Tm     0.00000000000000     7.84889921948598     0.00000000000000
Tm     0.00000000000000     2.61629973982866    -0.00000000000000
O     0.00000000000000     0.00000000000000     0.00000000000000