CRYSTAL
# Primitive lattice vectors in Angstrom
PRIMVEC
 1.07999670320074 3.05469196996943 1.87060916195056
 1.07999670320074 3.05469196996943 -1.87060916195056
 -2.15999340640148 3.05469196996943 -0.00000000000000
# Cartesian coordinates in Angstrom.
PRIMCOORD
 3 1
Tm     0.00000000000000     0.00000000000000     0.00000000000000
O     0.00000000000000     6.87305693243122     0.00000000000000
O     0.00000000000000     2.29101897747707    -0.00000000000000