CRYSTAL
# Primitive lattice vectors in Angstrom
PRIMVEC
 1.19478271934997 3.37935585158747 2.06942437391946
 1.19478271934997 3.37935585158747 -2.06942437391946
 -2.38956543869994 3.37935585158747 -0.00000000000000
# Cartesian coordinates in Angstrom.
PRIMCOORD
 3 1
U    -0.00000000000000     7.60355066607181     0.00000000000000
U    -0.00000000000000     2.53451688869061    -0.00000000000000
O     0.00000000000000     0.00000000000000     0.00000000000000