CRYSTAL
# Primitive lattice vectors in Angstrom
PRIMVEC
 1.09908388224715 3.10867866491918 1.90366912583211
 1.09908388224715 3.10867866491918 -1.90366912583211
 -2.19816776449430 3.10867866491918 -0.00000000000000
# Cartesian coordinates in Angstrom.
PRIMCOORD
 3 1
U     0.00000000000000     0.00000000000000     0.00000000000000
O    -0.00000000000000     6.99452699606816     0.00000000000000
O    -0.00000000000000     2.33150899868939    -0.00000000000000