CRYSTAL
# Primitive lattice vectors in Angstrom
PRIMVEC
 0.98811003779931 2.79479723314555 1.71145678893721
 0.98811003779931 2.79479723314555 -1.71145678893721
 -1.97622007559862 2.79479723314555 -0.00000000000000
# Cartesian coordinates in Angstrom.
PRIMCOORD
 2 1
U     0.00000000000000     0.00000000000000     0.00000000000000
O     0.00000000000000     4.19219584971832     0.00000000000000