CRYSTAL
# Primitive lattice vectors in Angstrom
PRIMVEC
 1.03631381343686 2.93113809967399 1.79494817745810
 1.03631381343686 2.93113809967399 -1.79494817745810
 -2.07262762687373 2.93113809967399 -0.00000000000000
# Cartesian coordinates in Angstrom.
PRIMCOORD
 3 1
V     0.00000000000000     6.59506072426647     0.00000000000000
V    -0.00000000000000     2.19835357475549     0.00000000000000
O     0.00000000000000     0.00000000000000     0.00000000000000