CRYSTAL
# Primitive lattice vectors in Angstrom
PRIMVEC
 0.85415823376680 2.41592431721132 1.47944545858739
 0.85415823376680 2.41592431721132 -1.47944545858739
 -1.70831646753360 2.41592431721132 -0.00000000000000
# Cartesian coordinates in Angstrom.
PRIMCOORD
 2 1
V     0.00000000000000     0.00000000000000     0.00000000000000
O     0.00000000000000     3.62388647581698    -0.00000000000000