CRYSTAL
# Primitive lattice vectors in Angstrom
PRIMVEC
 0.96694540374681 2.73493460810613 1.67479856743468
 0.96694540374681 2.73493460810613 -1.67479856743467
 -1.93389080749362 2.73493460810613 -0.00000000000000
# Cartesian coordinates in Angstrom.
PRIMCOORD
 3 1
V     0.00000000000000     0.00000000000000     0.00000000000000
O     0.00000000000000     6.15360286823879     0.00000000000000
O    -0.00000000000000     2.05120095607960     0.00000000000000