CRYSTAL
# Primitive lattice vectors in Angstrom
PRIMVEC
 1.12441063268487 3.18031353283891 1.94753634438086
 1.12441063268487 3.18031353283891 -1.94753634438086
 -2.24882126536974 3.18031353283891 -0.00000000000000
# Cartesian coordinates in Angstrom.
PRIMCOORD
 3 1
W     0.00000000000000     7.15570544888754     0.00000000000000
W    -0.00000000000000     2.38523514962918     0.00000000000000
O     0.00000000000000     0.00000000000000     0.00000000000000