CRYSTAL
# Primitive lattice vectors in Angstrom
PRIMVEC
 0.91115999149378 2.57714963492451 1.57817539909125
 0.91115999149378 2.57714963492451 -1.57817539909125
 -1.82231998298756 2.57714963492451 -0.00000000000000
# Cartesian coordinates in Angstrom.
PRIMCOORD
 2 1
W     0.00000000000000     0.00000000000000     0.00000000000000
O     0.00000000000000     3.86572445238676     0.00000000000000