CRYSTAL
# Primitive lattice vectors in Angstrom
PRIMVEC
 1.00847719943605 2.85240426557301 1.74673374769802
 1.00847719943605 2.85240426557301 -1.74673374769802
 -2.01695439887211 2.85240426557301 -0.00000000000000
# Cartesian coordinates in Angstrom.
PRIMCOORD
 3 1
W     0.00000000000000     0.00000000000000     0.00000000000000
O     0.00000000000000     6.41790959753926     0.00000000000000
O     0.00000000000000     2.13930319917975     0.00000000000000