CRYSTAL
# Primitive lattice vectors in Angstrom
PRIMVEC
 1.15468889918520 3.26595340309873 1.99997984032454
 1.15468889918520 3.26595340309873 -1.99997984032454
 -2.30937779837040 3.26595340309873 -0.00000000000000
# Cartesian coordinates in Angstrom.
PRIMCOORD
 2 1
Xe     0.00000000000000     0.00000000000000     0.00000000000000
O     0.00000000000000     4.89893010464810     0.00000000000000