CRYSTAL
# Primitive lattice vectors in Angstrom
PRIMVEC
 1.17242096929355 3.31610727117109 2.03069268667558
 1.17242096929355 3.31610727117109 -2.03069268667558
 -2.34484193858710 3.31610727117109 -0.00000000000000
# Cartesian coordinates in Angstrom.
PRIMCOORD
 3 1
Xe     0.00000000000000     0.00000000000000     0.00000000000000
O     0.00000000000000     7.46124136013496     0.00000000000000
O     0.00000000000000     2.48708045337832     0.00000000000000