CRYSTAL
# Primitive lattice vectors in Angstrom
PRIMVEC
 1.67130096075650 4.72715297101804 2.89477817876893
 1.67130096075650 4.72715297101804 -2.89477817876893
 -3.34260192151299 4.72715297101804 -0.00000000000000
# Cartesian coordinates in Angstrom.
PRIMCOORD
 3 1
Xe     0.00000000000000    10.63609418479059     0.00000000000000
Xe     0.00000000000000     3.54536472826353    -0.00000000000000
O     0.00000000000000     0.00000000000000     0.00000000000000