CRYSTAL
# Primitive lattice vectors in Angstrom
PRIMVEC
 1.23987882048687 3.50690688726336 2.14753311231182
 1.23987882048687 3.50690688726336 -2.14753311231182
 -2.47975764097373 3.50690688726336 -0.00000000000000
# Cartesian coordinates in Angstrom.
PRIMCOORD
 3 1
Y     0.00000000000000     7.89054049634257     0.00000000000000
Y    -0.00000000000000     2.63018016544752    -0.00000000000000
O     0.00000000000000     0.00000000000000     0.00000000000000