CRYSTAL
# Primitive lattice vectors in Angstrom
PRIMVEC
 1.10994291323727 3.13939264272009 1.92247751922796
 1.10994291323727 3.13939264272009 -1.92247751922796
 -2.21988582647453 3.13939264272009 -0.00000000000000
# Cartesian coordinates in Angstrom.
PRIMCOORD
 3 1
Y     0.00000000000000     0.00000000000000     0.00000000000000
O     0.00000000000000     7.06363344612021     0.00000000000000
O    -0.00000000000000     2.35454448204007     0.00000000000000