CRYSTAL
# Primitive lattice vectors in Angstrom
PRIMVEC
 0.98460950584177 2.78489623360581 1.70539368973323
 0.98460950584177 2.78489623360581 -1.70539368973323
 -1.96921901168354 2.78489623360581 -0.00000000000000
# Cartesian coordinates in Angstrom.
PRIMCOORD
 2 1
Y     0.00000000000000     0.00000000000000     0.00000000000000
O    -0.00000000000000     4.17734435040871     0.00000000000000