CRYSTAL
# Primitive lattice vectors in Angstrom
PRIMVEC
 1.08263774955433 3.06216197711363 1.87518358842013
 1.08263774955433 3.06216197711363 -1.87518358842013
 -2.16527549910866 3.06216197711363 -0.00000000000000
# Cartesian coordinates in Angstrom.
PRIMCOORD
 3 1
Yb     0.00000000000000     0.00000000000000     0.00000000000000
O    -0.00000000000000     6.88986444850568     0.00000000000000
O    -0.00000000000000     2.29662148283522     0.00000000000000