CRYSTAL
# Primitive lattice vectors in Angstrom
PRIMVEC
 1.25036716924669 3.53657241738944 2.16569946525133
 1.25036716924669 3.53657241738944 -2.16569946525133
 -2.50073433849337 3.53657241738944 -0.00000000000000
# Cartesian coordinates in Angstrom.
PRIMCOORD
 3 1
Yb     0.00000000000000     7.95728793912624     0.00000000000000
Yb    -0.00000000000000     2.65242931304208     0.00000000000000
O     0.00000000000000     0.00000000000000     0.00000000000000