CRYSTAL
# Primitive lattice vectors in Angstrom
PRIMVEC
 0.98383763678222 2.78271305822102 1.70405677330530
 0.98383763678222 2.78271305822102 -1.70405677330530
 -1.96767527356444 2.78271305822102 -0.00000000000000
# Cartesian coordinates in Angstrom.
PRIMCOORD
 2 1
Yb     0.00000000000000     0.00000000000000     0.00000000000000
O     0.00000000000000     4.17406958733153     0.00000000000000