CRYSTAL
# Primitive lattice vectors in Angstrom
PRIMVEC
 0.88361646554512 2.49924477902019 1.53046861272859
 0.88361646554512 2.49924477902019 -1.53046861272859
 -1.76723293109025 2.49924477902019 -0.00000000000000
# Cartesian coordinates in Angstrom.
PRIMCOORD
 2 1
Zn     0.00000000000000     0.00000000000000     0.00000000000000
O     0.00000000000000     3.74886716853028     0.00000000000000