CRYSTAL
# Primitive lattice vectors in Angstrom
PRIMVEC
 1.01116098012241 2.85999514366316 1.75138219220316
 1.01116098012241 2.85999514366316 -1.75138219220316
 -2.02232196024482 2.85999514366316 -0.00000000000000
# Cartesian coordinates in Angstrom.
PRIMCOORD
 3 1
Zn     0.00000000000000     0.00000000000000     0.00000000000000
O     0.00000000000000     6.43498907324212     0.00000000000000
O    -0.00000000000000     2.14499635774737     0.00000000000000