CRYSTAL
# Primitive lattice vectors in Angstrom
PRIMVEC
 1.11431620277532 3.15176217347389 1.93005227890408
 1.11431620277532 3.15176217347389 -1.93005227890408
 -2.22863240555064 3.15176217347389 -0.00000000000000
# Cartesian coordinates in Angstrom.
PRIMCOORD
 3 1
Zn     0.00000000000000     7.09146489031625     0.00000000000000
Zn     0.00000000000000     2.36382163010542     0.00000000000000
O     0.00000000000000     0.00000000000000     0.00000000000000