CRYSTAL
# Primitive lattice vectors in Angstrom
PRIMVEC
 0.93831742213471 2.65396244838775 1.62521344876438
 0.93831742213471 2.65396244838775 -1.62521344876438
 -1.87663484426943 2.65396244838775 -0.00000000000000
# Cartesian coordinates in Angstrom.
PRIMCOORD
 2 1
Zr     0.00000000000000     0.00000000000000     0.00000000000000
O     0.00000000000000     3.98094367258162    -0.00000000000000