CRYSTAL
# Primitive lattice vectors in Angstrom
PRIMVEC
 1.04430481212375 2.95374005711378 1.80878899318700
 1.04430481212375 2.95374005711378 -1.80878899318700
 -2.08860962424749 2.95374005711378 -0.00000000000000
# Cartesian coordinates in Angstrom.
PRIMCOORD
 3 1
Zr     0.00000000000000     0.00000000000000     0.00000000000000
O     0.00000000000000     6.64591512850600     0.00000000000000
O     0.00000000000000     2.21530504283533    -0.00000000000000