CRYSTAL
# Primitive lattice vectors in Angstrom
PRIMVEC
 1.17829385140431 3.33271829023360 2.04086481687828
 1.17829385140431 3.33271829023360 -2.04086481687828
 -2.35658770280862 3.33271829023360 -0.00000000000000
# Cartesian coordinates in Angstrom.
PRIMCOORD
 3 1
Zr     0.00000000000000     7.49861615302561     0.00000000000000
Zr    -0.00000000000000     2.49953871767520    -0.00000000000000
O     0.00000000000000     0.00000000000000     0.00000000000000